[General]
#cmdenv-express-mode = true
#cmdenv-autoflush = true
#cmdenv-status-frequency = 1s
#**.cmdenv-log-level = info

ned-path = .
image-path = ../../images

network = artery.inet.World

##########################################################
#                  Simulation parameters                 #
##########################################################

debug-on-errors = false
print-undisposed = false

#*.traci.core.startTime = 1160s
sim-time-limit = 60s

**.scalar-recording = false
**.vector-recording = false

**.debug = false
**.coreDebug = false

# Size of playground
*.playgroundSizeX = 3900m
*.playgroundSizeY = 1700m
*.playgroundSizeZ = 50m
*.connectionManager.sendDirect = true
*.connectionManager.maxInterfDist = 1500m

*.traci.core.version = -1
*.traci.launcher.typename = "PosixLauncher"
*.traci.launcher.sumocfg = "IRTSystemX.sumo.cfg"

# Middleware will update services every 0.1s, but this does not correspond to the sending frequency of CAM & CPM
*.node[*].middleware.updateInterval = 0.1s
*.node[*].middleware.F2MD_CAMService.beaconInterval = 1s
# /!!!\ please update "BeaconFrequency" in the detection parameters below accordingly to this value

*.node[*].middleware.datetime = "2018-03-19 10:00:00"
# Defines the services used by vehicles
*.node[*].middleware.services = xmldoc("services.xml")

[Config CAM-only]
*.traci.launcher.sumo = "sumo-gui"

# Defines the service used by vehicles: CAM Service only
*.node[*].middleware.services = xmldoc("servicesCAM.xml")

[Config CPM-only]
network = artery.envmod.World
*.traci.mapper.vehicleType = "artery.envmod.Car"
*.node[*].middleware.updateInterval = 0.1s
# Defines the service used by vehicles: CPM Service only
*.node[*].middleware.services = xmldoc("servicesCPM.xml")
*.node[*].middleware.datetime = "2018-01-26 09:15:00"
*.node[*].middleware.F2MD_CPService.transmission.result-recording-modes = all
*.node[*].middleware.F2MD_CPService.reception.result-recording-modes = all
*.node[*].middleware.F2MD_CPService.maxInterval = 1 s
*.node[*].middleware.F2MD_CPService.fixedRate = true
# *.traci.launcher.sumo = "sumo-gui"

# Defines the sensors on the vehicles
*.node[*].environmentModel.sensors = xmldoc("sensors.xml")
*.node[*].environmentModel.FrontRadar.fovRange = 200.0 m
*.node[*].environmentModel.FrontRadar.fovAngle = 20.0




[Config CPM-attack]
sim-time-limit = 2h
network = artery.envmod.World
*.traci.mapper.vehicleType = "artery.envmod.Car"
*.node[*].middleware.updateInterval = 0.1s
# Defines the service used by vehicles: CPM Service only
*.node[*].middleware.services = xmldoc("servicesCPM.xml")
*.node[*].middleware.datetime = "2018-01-26 09:15:00"
*.node[*].middleware.F2MD_CPService.transmission.result-recording-modes = all
*.node[*].middleware.F2MD_CPService.reception.result-recording-modes = all
*.node[*].middleware.F2MD_CPService.maxInterval = 1 s
*.node[*].middleware.F2MD_CPService.fixedRate = true
#*.traci.launcher.sumo = "sumo-gui"

# Defines the sensors on the vehicles
*.node[*].environmentModel.sensors = xmldoc("sensors.xml")
*.node[*].environmentModel.FrontRadar.fovRange = 200.0 m
*.node[*].environmentModel.FrontRadar.fovAngle = 20.0



##########################################################
#          /!\ BASE F2MD CPM PARAMETERS  /!\             #
##########################################################

#################
# CPM Attacks Parameters
#################

*.node[*].middleware.F2MD_CPService.MixCpLocalAttacks = false  # Use random attacks during the simulation
*.node[*].middleware.F2MD_CPService.RandomCpLocalMix = false
*.node[*].middleware.F2MD_CPService.CP_LOCAL_ATTACKER_PROB = 0.25  # probability for a new node to be an attacker

# Local Attack Types ... 0:Genuine, 1:DropObj, 2:DropAllObj, 3:AddObj, 4:SingleRandomDist, 5:SingleRandomSpeed
# Local Attack Types ... 6:MultiConstDist, 7:MultiConstSpeed, 8:MultiRandomDist, 9:MultiRandomSpeed
# Local Attack Types ... 10:SingleConstDistOffset, 11:SingleConstSpeedOffset, 12:SingleRandomDistOffset, 13: SingleRandomSpeedOffset
# Local Attack Types ... 14:MultiConstDistOffset, 15:MultiConstSpeedOffset, 16:MultiRandomDistOffset, 17: MultiRandomSpeedOffset
# Local Attack Types ... 18:SingleConstDist, 19:SingleConstSpeed,

# seed-set = ${0,25,6,13,14,19,20 ! n}
seed-set = 0
*.node[*].middleware.F2MD_CPService.CP_LOCAL_ATTACK_TYPE = ${n= 4,5,12,13,18,19}   # if MixCpLocalAttacks = false, all attackers will use this attack
*.node[*].middleware.F2MD_CPService.KeepSameID = ${false,true}


##########################################################
#            /!\ ADVANCED CPM F2MD PARAMETERS  /!\       #
##########################################################

*.node[*].middleware.F2MD_CPService.START_CPM_ATTACK = 5  # Delay before first attack in seconds
*.node[*].middleware.F2MD_CPService.MAX_CPM_DELTATIME = 2  # Estimated maximum delay between CPM for tests with history
*.node[*].middleware.F2MD_CPService.MAX_CPM_HISTORY_TIME = 15 # Maximum CPM history delta time for consistency checks

# Parameters used to generate random attacks, in meters or meters/second
*.node[*].middleware.F2MD_CPService.cpParVar = 0.80
*.node[*].middleware.F2MD_CPService.RandomDistOffsetX = 60.0
*.node[*].middleware.F2MD_CPService.RandomDistOffsetY = 60.0
*.node[*].middleware.F2MD_CPService.RandomSpeed = 70.0
*.node[*].middleware.F2MD_CPService.RandomSpeedOffset = 7.0
*.node[*].middleware.F2MD_CPService.RandomAccel = 2.0
*.node[*].middleware.F2MD_CPService.MaxRadarRange = 200.0

*.node[*].middleware.F2MD_CPService.SegmentAngle = 4
*.node[*].middleware.F2MD_CPService.MaxMapBoundary = 3000

# Detector setting 
*.node[*].middleware.F2MD_CPService.MAX_PLAUSIBLE_ACCEL = 3.6
*.node[*].middleware.F2MD_CPService.MAX_PLAUSIBLE_DECEL = 4.6
*.node[*].middleware.F2MD_CPService.MAX_PLAUSIBLE_SPEED = 50
*.node[*].middleware.F2MD_CPService.TOLERANCE_EXCEED_SPEED = 2.0
*.node[*].middleware.F2MD_CPService.TOLERANCE_DEARTH_SPEED = 3.0
*.node[*].middleware.F2MD_CPService.MAX_PLAUSIBLE_ANGLE_CHANGE = 360

# Kalman Filter Setting
*.node[*].middleware.F2MD_CPService.KALMAN_MIN_POS_RANGE = 2.0
*.node[*].middleware.F2MD_CPService.KALMAN_MIN_SPEED_RANGE = 1.0
*.node[*].middleware.F2MD_CPService.MAX_KALMAN_TIME = 2.1
*.node[*].middleware.F2MD_CPService.KALMAN_POS_RANGE = 4.0
*.node[*].middleware.F2MD_CPService.KALMAN_SPEED_RANGE = 4.0

# Pseudonym change 
# NoChange 0, Periodical 1, Disposable 2 
# DistanceBased 3, Random 4, Car2car 5
*.node[*].middleware.F2MD_CPService.EnablePC = false
*.node[*].middleware.F2MD_CPService.PC_TYPE = 1 
*.node[*].middleware.F2MD_CPService.Period_Change_Time = 300





[Config CPM-attack-1]
sim-time-limit = 2h
network = artery.envmod.World
*.traci.mapper.vehicleType = "artery.envmod.Car"
*.node[*].middleware.updateInterval = 0.1s
# Defines the service used by vehicles: CPM Service only
*.node[*].middleware.services = xmldoc("servicesCPM.xml")
*.node[*].middleware.datetime = "2018-01-26 09:15:00"
*.node[*].middleware.F2MD_CPService.transmission.result-recording-modes = all
*.node[*].middleware.F2MD_CPService.reception.result-recording-modes = all
*.node[*].middleware.F2MD_CPService.maxInterval = 1 s
*.node[*].middleware.F2MD_CPService.fixedRate = true
#*.traci.launcher.sumo = "sumo-gui"

# Defines the sensors on the vehicles
*.node[*].environmentModel.sensors = xmldoc("sensors.xml")
*.node[*].environmentModel.FrontRadar.fovRange = 200.0 m
*.node[*].environmentModel.FrontRadar.fovAngle = 20.0



##########################################################
#          /!\ BASE F2MD CPM PARAMETERS  /!\             #
##########################################################


#################
# CPM Attacks Parameters
#################

*.node[*].middleware.F2MD_CPService.MixCpLocalAttacks = false  # Use random attacks during the simulation
*.node[*].middleware.F2MD_CPService.RandomCpLocalMix = false
*.node[*].middleware.F2MD_CPService.CP_LOCAL_ATTACKER_PROB = 0.25  # probability for a new node to be an attacker

# Local Attack Types ... 0:Genuine, 1:DropObj, 2:DropAllObj, 3:AddObj, 4:SingleRandomDist, 5:SingleRandomSpeed
# Local Attack Types ... 6:MultiConstDist, 7:MultiConstSpeed, 8:MultiRandomDist, 9:MultiRandomSpeed
# Local Attack Types ... 10:SingleConstDistOffset, 11:SingleConstSpeedOffset, 12:SingleRandomDistOffset, 13: SingleRandomSpeedOffset
# Local Attack Types ... 14:MultiConstDistOffset, 15:MultiConstSpeedOffset, 16:MultiRandomDistOffset, 17: MultiRandomSpeedOffset
# Local Attack Types ... 18:SingleConstDist, 19:SingleConstSpeed,

# seed-set = ${13,14,13,14 ! n}
seed-set = 0
# *.node[*].middleware.F2MD_CPService.CP_LOCAL_ATTACK_TYPE = ${n=0,13,14,21,22}   # if MixCpLocalAttacks = false, all attackers will use this attack
*.node[*].middleware.F2MD_CPService.CP_LOCAL_ATTACK_TYPE = 0
*.node[*].middleware.F2MD_CPService.KeepSameID = false


##########################################################
#            /!\ ADVANCED CPM F2MD PARAMETERS  /!\       #
##########################################################

*.node[*].middleware.F2MD_CPService.START_CPM_ATTACK = 5  # Delay before first attack in seconds
*.node[*].middleware.F2MD_CPService.MAX_CPM_DELTATIME = 2  # Estimated maximum delay between CPM for tests with history
*.node[*].middleware.F2MD_CPService.MAX_CPM_HISTORY_TIME = 15 # Maximum CPM history delta time for consistency checks

# Parameters used to generate random attacks, in meters or meters/second
*.node[*].middleware.F2MD_CPService.cpParVar = 0.80
*.node[*].middleware.F2MD_CPService.RandomDistOffsetX = 60.0
*.node[*].middleware.F2MD_CPService.RandomDistOffsetY = 60.0
*.node[*].middleware.F2MD_CPService.RandomSpeed = 70.0
*.node[*].middleware.F2MD_CPService.RandomSpeedOffset = 7.0
*.node[*].middleware.F2MD_CPService.RandomAccel = 2.0
*.node[*].middleware.F2MD_CPService.MaxRadarRange = 200.0

*.node[*].middleware.F2MD_CPService.SegmentAngle = 4
*.node[*].middleware.F2MD_CPService.MaxMapBoundary = 3000

# Detector setting 
*.node[*].middleware.F2MD_CPService.MAX_PLAUSIBLE_ACCEL = 3.6
*.node[*].middleware.F2MD_CPService.MAX_PLAUSIBLE_DECEL = 4.6
*.node[*].middleware.F2MD_CPService.MAX_PLAUSIBLE_SPEED = 50
*.node[*].middleware.F2MD_CPService.TOLERANCE_EXCEED_SPEED = 2.0
*.node[*].middleware.F2MD_CPService.TOLERANCE_DEARTH_SPEED = 3.0
*.node[*].middleware.F2MD_CPService.MAX_PLAUSIBLE_ANGLE_CHANGE = 360

# Kalman Filter Setting
*.node[*].middleware.F2MD_CPService.KALMAN_MIN_POS_RANGE = 4.0
*.node[*].middleware.F2MD_CPService.KALMAN_MIN_SPEED_RANGE = 1.0
*.node[*].middleware.F2MD_CPService.MAX_KALMAN_TIME = 3.1
*.node[*].middleware.F2MD_CPService.KALMAN_POS_RANGE = 4.0
*.node[*].middleware.F2MD_CPService.KALMAN_SPEED_RANGE = 4.0

# Pseudonym change 
# NoChange 0, Periodical 1, Disposable 2 
# DistanceBased 3, Random 4, Car2car 5
*.node[*].middleware.F2MD_CPService.EnablePC = false
*.node[*].middleware.F2MD_CPService.PC_TYPE = 1 
*.node[*].middleware.F2MD_CPService.Period_Change_Time = 300








#################


[Config CPM-and-CAM]
network = artery.envmod.World
*.traci.mapper.vehicleType = "artery.envmod.Car"
*.node[*].middleware.updateInterval = 0.1s

# Defines the services used by vehicles
*.node[*].middleware.services = xmldoc("services.xml")
*.node[*].middleware.datetime = "2018-01-26 09:15:00"
*.node[*].middleware.F2MD_CPService.transmission.result-recording-modes = all
*.node[*].middleware.F2MD_CPService.reception.result-recording-modes = all
*.node[*].middleware.F2MD_CPService.maxInterval = 1 s
*.node[*].middleware.F2MD_CPService.fixedRate = true
# *.traci.launcher.sumo = "sumo-gui"

*.node[*].environmentModel.sensors = xmldoc("sensors.xml")
*.node[*].environmentModel.FrontRadar.fovRange = 200.0 m
*.node[*].environmentModel.FrontRadar.fovAngle = 20.0

# Obstacle parameters

*.obstacles.obstacles = xmldoc("config.xml", "//AnalogueModel[@type='SimpleObstacleShadowing']/obstacles")


##########################################################
#          /!\ BASE F2MD CAM PARAMETERS  /!\             #
##########################################################

#################
# CAM Attacks Parameters
#################

*.node[*].middleware.F2MD_CAMService.UseAttacksServer = false
*.node[*].middleware.F2MD_CAMService.MixLocalAttacks = true # Use random attacks during the simulation
*.node[*].middleware.F2MD_CAMService.RandomLocalMix = false
*.node[*].middleware.F2MD_CAMService.LOCAL_ATTACKER_PROB = 0.05 # probability for a new node to be a local attacker

# Local Attack Types ... 0:Genuine, 1:ConstPos, 2:ConstPosOffset, 3:RandomPos, 4:RandomPosOffset, 5:ConstSpeed
# Local Attack Types ... 6:ConstSpeedOffset, 7:RandomSpeed, 8:RandomSpeedOffset, 9:EventualStop, 10:Disruptive,
# Local Attack Types ... 11:DataReplay, 12:StaleMessages, 13:DoS, 14:DoSRandom, 15:DoSDisruptive, 16:GridSybil,
# Local Attack Types ... 17:DataReplaySybil, 18:DoSRandomSybil, 19:DoSDisruptiveSybil

*.node[*].middleware.F2MD_CAMService.LOCAL_ATTACK_TYPE = 12 # if MixCpLocalAttacks = false, all attackers will use this attack


*.node[*].middleware.F2MD_CAMService.GLOBAL_ATTACKER_PROB = 0.0 # probability for a new node to be a global attacker

# Global Attack Types ... 20:MAStress
*.node[*].middleware.F2MD_CAMService.GLOBAL_ATTACK_TYPE = 20
#################

#################
# Pseudonym Change Parameters
#################
*.node[*].middleware.F2MD_CAMService.EnablePC = true # Enable pseudonym changes

# PC TYPES ... 0:NoChange, 1:Periodical, 2:Disposable, 3:DistanceBased, 4:Random, 5:Car2car
*.node[*].middleware.F2MD_CAMService.PC_TYPE = 5 # Pseudo change type
#################

#################
# Detection Parameters
#################
*.node[*].middleware.F2MD_CAMService.EnableV1 = true  # Use check Version 1
*.node[*].middleware.F2MD_CAMService.EnableV2 = true  # Use check Version 2
*.node[*].apmiddleware.F2MD_CAMServicepl.SaveStatsV1 = true  # save stats for check Version 1
*.node[*].middleware.F2MD_CAMService.SaveStatsV2 = true   # save stats for check Version 2

# checksVersions ... 0:LegacyChecks , 1:CatchChecks, 2:ExperiChecks
*.node[*].middleware.F2MD_CAMService.checksVersionV1 = 2
*.node[*].middleware.F2MD_CAMService.checksVersionV2 = 2

# appTypes ... 0:ThresholdApp, 1:AggrigationApp-, 2:BehavioralApp, 3:CooperativeApp, 4:ExperiApp-, 5:MachineLearningApp,
*.node[*].middleware.F2MD_CAMService.appTypeV1 = 0
*.node[*].middleware.F2MD_CAMService.appTypeV2 = 2
#################

#################
# Reporting Parameters
#################
# Report Versions ... 0:OneMessageReport, 1:EvidenceReport, 2:ProtocolReport, 3:BasicCheckReport
*.node[*].middleware.F2MD_CAMService.REPORT_VERSION = 2
*.node[*].middleware.F2MD_CAMService.sendReportsV1 = true  # Send report from Check Version 1
*.node[*].middleware.F2MD_CAMService.sendReportsV2 = false  # Send report from Check Version 2
*.node[*].middleware.F2MD_CAMService.maHostV1 = "localhost"
*.node[*].middleware.F2MD_CAMService.maHostV2 = "localhost"
*.node[*].middleware.F2MD_CAMService.maPortV1 = 9980
*.node[*].middleware.F2MD_CAMService.maPortV2 = 9981
#################

#################
# CAM Database Generation F2MD Parameters
#################
*.node[*].middleware.F2MD_CAMService.writeSelfMsg = false
*.node[*].middleware.F2MD_CAMService.writeListSelfMsg = false

*.node[*].middleware.F2MD_CAMService.writeBsmsV1 = false
*.node[*].middleware.F2MD_CAMService.writeBsmsV2 = false
*.node[*].middleware.F2MD_CAMService.writeListBsmsV1 = false
*.node[*].middleware.F2MD_CAMService.writeListBsmsV2 = false

*.node[*].middleware.F2MD_CAMService.writeReportsV1 = false
*.node[*].middleware.F2MD_CAMService.writeReportsV2 = false
*.node[*].middleware.F2MD_CAMService.writeListReportsV1 = false
*.node[*].middleware.F2MD_CAMService.writeListReportsV2 = false

*.node[*].middleware.F2MD_CAMService.writeVeReMi = false
*.node[*].middleware.F2MD_CAMService.VeReMiSliceTime = 3600
#################



##########################################################
#          /!\ BASE F2MD CPM PARAMETERS  /!\             #
##########################################################


#################
# CPM Attacks Parameters
#################

*.node[*].middleware.F2MD_CPService.MixCpLocalAttacks = false  # Use random attacks during the simulation
*.node[*].middleware.F2MD_CPService.RandomCpLocalMix = false
*.node[*].middleware.F2MD_CPService.CP_LOCAL_ATTACKER_PROB = 0.10  # probability for a new node to be an attacker


# Local Attack Types ... 0:Genuine, 1:DropObj, 2:DropAllObj, 3:DropObj_KeepSameID, 4:AddObj, 5:SingleRandomDist, 6:SingleRandomSpeed
# Local Attack Types ... 7:MultiConstDist, 8:MultiConstSpeed, 9:MultiRandomDist, 10:MultiRandomSpeed
# Local Attack Types ... 11:SingleConstDistOffset, 12:SingleConstSpeedOffset, 13:SingleRandomDistOffset, 14: SingleRandomSpeedOffset
# Local Attack Types ... 15:MultiConstDistOffset, 16:MultiConstSpeedOffset, 17:MultiRandomDistOffset, 18: MultiRandomSpeedOffset
# Local Attack Types ... 19:SingleConstDist, 20:SingleConstSpeed, 21:SingleRandomDistOffset_KeepSameID, 22:SingleRandomSpeedOffset_KeepSameID,
# Local Attack Types ... 23:DropObj_set

*.node[*].middleware.F2MD_CPService.CP_LOCAL_ATTACK_TYPE = 20   # if MixCpLocalAttacks = false, all attackers will use this attack

# Sensors caracteristics
*.node[*].middleware.F2MD_CPService.MaxRadarRange = 200
*.node[*].middleware.F2MD_CPService.MaxRadarAngle = 20
#################


##########################################################
#            /!\ ADVANCED CAM F2MD PARAMETERS  /!\           #
##########################################################

*.node[*].middleware.F2MD_CAMService.veremiConf = true
*.node[*].middleware.F2MD_CAMService.randomConf = false
*.node[*].middleware.F2MD_CAMService.variableConf = false

# Confidence parameters
*.node[*].middleware.F2MD_CAMService.confPos = 10.0
*.node[*].middleware.F2MD_CAMService.confSpd = 0.05
*.node[*].middleware.F2MD_CAMService.confHea = 20.0
*.node[*].middleware.F2MD_CAMService.confAcc = 0.01
*.node[*].middleware.F2MD_CAMService.confPrec = 100.0
*.node[*].middleware.F2MD_CAMService.minConf = 0.20

# Statistics parameters
*.node[*].middleware.F2MD_CAMService.SAVE_PERIOD = 10
*.node[*].middleware.F2MD_CAMService.PRINT_PERIOD = 60
*.node[*].middleware.F2MD_CAMService.START_SAVE = 0

# Delay before first attack, in seconds
*.node[*].middleware.F2MD_CAMService.START_ATTACK = 10

*.node[*].middleware.F2MD_CAMService.enableVarThreV1 = false
*.node[*].middleware.F2MD_CAMService.enableVarThreV2 = false

# Checks Parameters
*.node[*].middleware.F2MD_CAMService.MAX_PROXIMITY_RANGE_L = 30
*.node[*].middleware.F2MD_CAMService.MAX_PROXIMITY_RANGE_W = 3
*.node[*].middleware.F2MD_CAMService.MAX_PROXIMITY_DISTANCE = 2

*.node[*].middleware.F2MD_CAMService.MAX_CONFIDENCE_RANGE = 10
*.node[*].middleware.F2MD_CAMService.MAX_PLAUSIBLE_RANGE = 420
*.node[*].middleware.F2MD_CAMService.MAX_TIME_DELTA = 3.1
*.node[*].middleware.F2MD_CAMService.MAX_DELTA_INTER = 2.0
*.node[*].middleware.F2MD_CAMService.MAX_SA_RANGE = 420
*.node[*].middleware.F2MD_CAMService.MAX_SA_TIME = 2.1
*.node[*].middleware.F2MD_CAMService.MAX_KALMAN_TIME = 3.1
*.node[*].middleware.F2MD_CAMService.KALMAN_POS_RANGE = 1.0
*.node[*].middleware.F2MD_CAMService.KALMAN_SPEED_RANGE = 4.0
*.node[*].middleware.F2MD_CAMService.KALMAN_MIN_POS_RANGE = 4.0
*.node[*].middleware.F2MD_CAMService.KALMAN_MIN_SPEED_RANGE = 1.0
*.node[*].middleware.F2MD_CAMService.MIN_MAX_SPEED = 40
*.node[*].middleware.F2MD_CAMService.MIN_MAX_ACCEL = 3
*.node[*].middleware.F2MD_CAMService.MIN_MAX_DECEL = 4.5
*.node[*].middleware.F2MD_CAMService.MAX_MGT_RNG = 4
*.node[*].middleware.F2MD_CAMService.MAX_MGT_RNG_DOWN = 6.2
*.node[*].middleware.F2MD_CAMService.MAX_MGT_RNG_UP = 2.1

*.node[*].middleware.F2MD_CAMService.MAX_BEACON_FREQUENCY = 0.99
*.node[*].middleware.F2MD_CAMService.MAX_DISTANCE_FROM_ROUTE = 2
*.node[*].middleware.F2MD_CAMService.MAX_NON_ROUTE_SPEED = -1
*.node[*].middleware.F2MD_CAMService.MAX_HEADING_CHANGE = 90
*.node[*].middleware.F2MD_CAMService.DELTA_BSM_TIME = 5
*.node[*].middleware.F2MD_CAMService.DELTA_REPORT_TIME = 5
*.node[*].middleware.F2MD_CAMService.POS_HEADING_TIME = 1.1

*.node[*].middleware.F2MD_CAMService.MAX_TARGET_TIME = 2
*.node[*].middleware.F2MD_CAMService.MAX_ACCUSED_TIME = 2

# Attacks parameters (Used to generate random attacks)
*.node[*].middleware.F2MD_CAMService.parVar = 0.55
*.node[*].middleware.F2MD_CAMService.RandomPosOffsetX = 70.0
*.node[*].middleware.F2MD_CAMService.RandomPosOffsetY = 70.0
*.node[*].middleware.F2MD_CAMService.RandomSpeedX = 40.0
*.node[*].middleware.F2MD_CAMService.RandomSpeedY = 40.0
*.node[*].middleware.F2MD_CAMService.RandomSpeedOffsetX = 7.0
*.node[*].middleware.F2MD_CAMService.RandomSpeedOffsetY = 7.0
*.node[*].middleware.F2MD_CAMService.RandomAccelX = 2.0
*.node[*].middleware.F2MD_CAMService.RandomAccelY = 2.0
*.node[*].middleware.F2MD_CAMService.StopProb = 0.05
*.node[*].middleware.F2MD_CAMService.StaleMessages_Buffer = 60
*.node[*].middleware.F2MD_CAMService.DosMultipleFreq = 4
*.node[*].middleware.F2MD_CAMService.DosMultipleFreqSybil = 2
*.node[*].middleware.F2MD_CAMService.ReplaySeqNum = 6
*.node[*].middleware.F2MD_CAMService.SybilVehNumber = 5
*.node[*].middleware.F2MD_CAMService.SelfSybil = false
*.node[*].middleware.F2MD_CAMService.SybilDistanceX = 5
*.node[*].middleware.F2MD_CAMService.SybilDistanceY = 2

*.node[*].middleware.F2MD_CAMService.Period_Change_Time = 240
*.node[*].middleware.F2MD_CAMService.Tolerance_Buffer = 10
*.node[*].middleware.F2MD_CAMService.Period_Change_Distance = 80
*.node[*].middleware.F2MD_CAMService.Random_Change_Chance = 0.1

*.node[*].middleware.F2MD_CAMService.InitialHistory = 5
*.node[*].middleware.F2MD_CAMService.CollectionPeriod = 10
*.node[*].middleware.F2MD_CAMService.UntolerancePeriod = 5

##########################################################
#            /!\ ADVANCED CPM F2MD PARAMETERS  /!\           #
##########################################################

*.node[*].middleware.F2MD_CPService.START_CPM_ATTACK = 5  # Delay before first attack in seconds
*.node[*].middleware.F2MD_CPService.MAX_CPM_DELTATIME = 2  # Estimated maximum delay between CPM for tests with history
*.node[*].middleware.F2MD_CPService.MAX_CPM_HISTORY_TIME = 15 # Maximum CPM history delta time for consistency checks

# Parameters used to generate random attacks, in meters or meters/second
*.node[*].middleware.F2MD_CPService.cpParVar = 0.80
*.node[*].middleware.F2MD_CPService.RandomDistOffsetX = 60.0
*.node[*].middleware.F2MD_CPService.RandomDistOffsetY = 40.0
*.node[*].middleware.F2MD_CPService.RandomSpeed = 20.0
*.node[*].middleware.F2MD_CPService.RandomSpeedOffset = 7.0
*.node[*].middleware.F2MD_CPService.RandomAccel = 2.0