<?xml version="1.0" encoding="UTF-8"?>

<configuration xmlns:xsi="http://www.w3.org/2001/XMLSchema-instance" xsi:noNamespaceSchemaLocation="http://sumo.dlr.de/xsd/duarouterConfiguration.xsd">

    <input>
        <net-file value="../net/Town04.net.xml"/>
        <route-files value="trips.trips.xml"/>
        <additional-files value="../carlavtypes.rou.xml"/>
    </input>

    <output>
        <output-file value="Town04.randomTrip.rou.xml"/>
    </output>


    <processing>
        <ignore-errors value="true"/>
        <remove-loops value="true"/>
    </processing>
    
    <time>
        <begin value="0.0"/>
        <end value="7200.0"/>
    </time>
    
    <report>
        <no-warnings value="true"/>
        <no-step-log value="true"/>
    </report>

</configuration>