<?xml version="1.0" encoding="UTF-8"?>

<!-- generated on 2024-01-16 17:14:13.952063 by randomTrips.py UNKNOWN
<configuration>
    <net-file value="../net/Town04.net.xml"/>
    <additional-files value="../carlavtypes.rou.xml"/>
    <trip-attributes value="type=&quot;vehicle.nissan.micra&quot;"/>
    <remove-loops value="True"/>
    <end value="7200.0"/>
    <insertion-rate value="4000.0"/>
</configuration>
-->

<routes xmlns:xsi="http://www.w3.org/2001/XMLSchema-instance" xsi:noNamespaceSchemaLocation="http://sumo.dlr.de/xsd/routes_file.xsd">
    <trip id="0" depart="0.00" from="21.0.00" to="-10.0.00" type="vehicle.nissan.micra"/>
    <trip id="1" depart="0.90" from="-36.0.00" to="-28.0.00" type="vehicle.nissan.micra"/>
    <trip id="2" depart="1.80" from="31.0.00" to="26.0.00" type="vehicle.nissan.micra"/>
    <trip id="3" depart="2.70" from="46.0.00" to="-15.0.00" type="vehicle.nissan.micra"/>
    <trip id="4" depart="3.60" from="-50.0.00" to="-10.0.00" type="vehicle.nissan.micra"/>
    <trip id="5" depart="4.50" from="-28.0.00" to="1.0.00" type="vehicle.nissan.micra"/>
    <trip id="6" depart="5.40" from="-10.0.00" to="-26.0.00" type="vehicle.nissan.micra"/>
    <trip id="7" depart="6.30" from="24.0.00" to="13.0.00" type="vehicle.nissan.micra"/>
    <trip id="8" depart="7.20" from="-28.0.00" to="17.0.00" type="vehicle.nissan.micra"/>
    <trip id="9" depart="8.10" from="38.0.00" to="-0.0.00" type="vehicle.nissan.micra"/>
    <trip id="10" depart="9.00" from="38.0.00" to="28.0.00" type="vehicle.nissan.micra"/>
    <trip id="11" depart="9.90" from="-41.0.00" to="-20.0.00" type="vehicle.nissan.micra"/>
    <trip id="12" depart="10.80" from="52.0.00" to="-41.0.00" type="vehicle.nissan.micra"/>
    <trip id="13" depart="11.70" from="-16.0.00" to="-16.0.00" type="vehicle.nissan.micra"/>
    <trip id="14" depart="12.60" from="40.0.00" to="18.0.00" type="vehicle.nissan.micra"/>
    <trip id="15" depart="13.50" from="38.0.00" to="30.0.00" type="vehicle.nissan.micra"/>
    <trip id="16" depart="14.40" from="12.0.00" to="7.0.00" type="vehicle.nissan.micra"/>
    <trip id="17" depart="15.30" from="-47.0.00" to="14.0.00" type="vehicle.nissan.micra"/>
    <trip id="18" depart="16.20" from="4.0.00" to="19.0.00" type="vehicle.nissan.micra"/>
    <trip id="19" depart="17.10" from="42.0.00" to="16.0.00" type="vehicle.nissan.micra"/>
    <trip id="20" depart="18.00" from="29.0.00" to="-11.0.00" type="vehicle.nissan.micra"/>
    <trip id="21" depart="18.90" from="-28.0.00" to="-38.0.00" type="vehicle.nissan.micra"/>
    <trip id="22" depart="19.80" from="-14.0.00" to="-29.0.00" type="vehicle.nissan.micra"/>
    <trip id="23" depart="20.70" from="-16.0.00" to="-37.0.00" type="vehicle.nissan.micra"/>
    <trip id="24" depart="21.60" from="21.0.00" to="-46.0.00" type="vehicle.nissan.micra"/>
    <trip id="25" depart="22.50" from="-47.0.00" to="-27.0.00" type="vehicle.nissan.micra"/>
    <trip id="26" depart="23.40" from="-36.0.00" to="5.0.00" type="vehicle.nissan.micra"/>
    <trip id="27" depart="24.30" from="24.0.00" to="18.0.00" type="vehicle.nissan.micra"/>
    <trip id="28" depart="25.20" from="-22.0.00" to="30.0.00" type="vehicle.nissan.micra"/>
    <trip id="29" depart="26.10" from="-22.0.00" to="-48.0.00" type="vehicle.nissan.micra"/>
    <trip id="30" depart="27.00" from="9.0.00" to="21.0.00" type="vehicle.nissan.micra"/>
    <trip id="31" depart="27.90" from="14.0.00" to="27.0.00" type="vehicle.nissan.micra"/>
    <trip id="32" depart="28.80" from="40.0.00" to="35.0.00" type="vehicle.nissan.micra"/>
    <trip id="33" depart="29.70" from="-28.0.00" to="-10.0.00" type="vehicle.nissan.micra"/>
    <trip id="34" depart="30.60" from="-4.0.00" to="-36.0.00" type="vehicle.nissan.micra"/>
    <trip id="35" depart="31.50" from="-27.0.00" to="51.0.00" type="vehicle.nissan.micra"/>
    <trip id="36" depart="32.40" from="45.0.00" to="-4.0.00" type="vehicle.nissan.micra"/>
    <trip id="37" depart="33.30" from="25.0.00" to="-49.0.00" type="vehicle.nissan.micra"/>
    <trip id="38" depart="34.20" from="48.0.00" to="-7.0.00" type="vehicle.nissan.micra"/>
    <trip id="39" depart="35.10" from="-36.0.00" to="-3.0.00" type="vehicle.nissan.micra"/>
    <trip id="40" depart="36.00" from="14.0.00" to="-30.0.00" type="vehicle.nissan.micra"/>
    <trip id="41" depart="36.90" from="16.0.00" to="47.0.00" type="vehicle.nissan.micra"/>
    <trip id="42" depart="37.80" from="-49.0.00" to="-28.0.00" type="vehicle.nissan.micra"/>
    <trip id="43" depart="38.70" from="9.0.00" to="10.0.00" type="vehicle.nissan.micra"/>
    <trip id="44" depart="39.60" from="-15.0.00" to="-12.0.00" type="vehicle.nissan.micra"/>
    <trip id="45" depart="40.50" from="-17.0.00" to="2.0.00" type="vehicle.nissan.micra"/>
    <trip id="46" depart="41.40" from="36.0.00" to="-50.0.00" type="vehicle.nissan.micra"/>
    <trip id="47" depart="42.30" from="-13.0.00" to="-48.0.00" type="vehicle.nissan.micra"/>
    <trip id="48" depart="43.20" from="9.0.00" to="12.0.00" type="vehicle.nissan.micra"/>
    <trip id="49" depart="44.10" from="7.0.00" to="42.0.00" type="vehicle.nissan.micra"/>
    <trip id="50" depart="45.00" from="-0.0.00" to="3.0.00" type="vehicle.nissan.micra"/>
    <trip id="51" depart="45.90" from="27.0.00" to="12.0.00" type="vehicle.nissan.micra"/>
    <trip id="52" depart="46.80" from="-36.0.00" to="21.0.00" type="vehicle.nissan.micra"/>
    <trip id="53" depart="47.70" from="-17.0.00" to="-51.0.00" type="vehicle.nissan.micra"/>
    <trip id="54" depart="48.60" from="-7.0.00" to="51.0.00" type="vehicle.nissan.micra"/>
    <trip id="55" depart="49.50" from="45.0.00" to="-30.0.00" type="vehicle.nissan.micra"/>
    <trip id="56" depart="50.40" from="1.0.00" to="-23.0.00" type="vehicle.nissan.micra"/>
    <trip id="57" depart="51.30" from="48.0.00" to="44.0.00" type="vehicle.nissan.micra"/>
    <trip id="58" depart="52.20" from="-38.0.00" to="21.0.00" type="vehicle.nissan.micra"/>
    <trip id="59" depart="53.10" from="18.0.00" to="-20.0.00" type="vehicle.nissan.micra"/>
    <trip id="60" depart="54.00" from="34.0.00" to="12.0.00" type="vehicle.nissan.micra"/>
    <trip id="61" depart="54.90" from="35.0.00" to="12.0.00" type="vehicle.nissan.micra"/>
    <trip id="62" depart="55.80" from="-0.0.00" to="-40.0.00" type="vehicle.nissan.micra"/>
    <trip id="63" depart="56.70" from="-1.0.00" to="49.0.00" type="vehicle.nissan.micra"/>
    <trip id="64" depart="57.60" from="45.0.00" to="4.0.00" type="vehicle.nissan.micra"/>
    <trip id="65" depart="58.50" from="-39.0.00" to="-13.0.00" type="vehicle.nissan.micra"/>
    <trip id="66" depart="59.40" from="45.0.00" to="51.0.00" type="vehicle.nissan.micra"/>
    <trip id="67" depart="60.30" from="-15.0.00" to="0.0.00" type="vehicle.nissan.micra"/>
    <trip id="68" depart="61.20" from="-14.0.00" to="34.0.00" type="vehicle.nissan.micra"/>
    <trip id="69" depart="62.10" from="34.0.00" to="-19.0.00" type="vehicle.nissan.micra"/>
    <trip id="70" depart="63.00" from="-9.0.00" to="13.0.00" type="vehicle.nissan.micra"/>
    <trip id="71" depart="63.90" from="-36.0.00" to="44.0.00" type="vehicle.nissan.micra"/>
    <trip id="72" depart="64.80" from="-50.0.00" to="-27.0.00" type="vehicle.nissan.micra"/>
    <trip id="73" depart="65.70" from="12.0.00" to="30.0.00" type="vehicle.nissan.micra"/>
    <trip id="74" depart="66.60" from="-26.0.00" to="-4.0.00" type="vehicle.nissan.micra"/>
    <trip id="75" depart="67.50" from="9.0.00" to="24.0.00" type="vehicle.nissan.micra"/>
    <trip id="76" depart="68.40" from="-52.0.00" to="11.0.00" type="vehicle.nissan.micra"/>
    <trip id="77" depart="69.30" from="-18.0.00" to="-28.0.00" type="vehicle.nissan.micra"/>
    <trip id="78" depart="70.20" from="-41.0.00" to="17.0.00" type="vehicle.nissan.micra"/>
    <trip id="79" depart="71.10" from="-29.0.00" to="-28.0.00" type="vehicle.nissan.micra"/>
    <trip id="80" depart="72.00" from="-14.0.00" to="2.0.00" type="vehicle.nissan.micra"/>
    <trip id="81" depart="72.90" from="-28.0.00" to="47.0.00" type="vehicle.nissan.micra"/>
    <trip id="82" depart="73.80" from="42.0.00" to="-14.0.00" type="vehicle.nissan.micra"/>
    <trip id="83" depart="74.70" from="-29.0.00" to="26.0.00" type="vehicle.nissan.micra"/>
    <trip id="84" depart="75.60" from="-27.0.00" to="-19.0.00" type="vehicle.nissan.micra"/>
    <trip id="85" depart="76.50" from="5.0.00" to="15.0.00" type="vehicle.nissan.micra"/>
    <trip id="86" depart="77.40" from="-9.0.00" to="36.0.00" type="vehicle.nissan.micra"/>
    <trip id="87" depart="78.30" from="38.0.00" to="-25.0.00" type="vehicle.nissan.micra"/>
    <trip id="88" depart="79.20" from="-16.0.00" to="-51.0.00" type="vehicle.nissan.micra"/>
    <trip id="89" depart="80.10" from="-50.0.00" to="-8.0.00" type="vehicle.nissan.micra"/>
    <trip id="90" depart="81.00" from="30.0.00" to="26.0.00" type="vehicle.nissan.micra"/>
    <trip id="91" depart="81.90" from="8.0.00" to="-16.0.00" type="vehicle.nissan.micra"/>
    <trip id="92" depart="82.80" from="-5.0.00" to="-41.0.00" type="vehicle.nissan.micra"/>
    <trip id="93" depart="83.70" from="42.0.00" to="-3.0.00" type="vehicle.nissan.micra"/>
    <trip id="94" depart="84.60" from="-25.0.00" to="-7.0.00" type="vehicle.nissan.micra"/>
    <trip id="95" depart="85.50" from="-50.0.00" to="-37.0.00" type="vehicle.nissan.micra"/>
    <trip id="96" depart="86.40" from="-3.0.00" to="49.0.00" type="vehicle.nissan.micra"/>
    <trip id="97" depart="87.30" from="-52.0.00" to="42.0.00" type="vehicle.nissan.micra"/>
    <trip id="98" depart="88.20" from="13.0.00" to="-12.0.00" type="vehicle.nissan.micra"/>
    <trip id="99" depart="89.10" from="9.0.00" to="4.0.00" type="vehicle.nissan.micra"/>
    <trip id="100" depart="90.00" from="7.0.00" to="49.0.00" type="vehicle.nissan.micra"/>
    <trip id="101" depart="90.90" from="40.0.00" to="-22.0.00" type="vehicle.nissan.micra"/>
    <trip id="102" depart="91.80" from="0.0.00" to="-27.0.00" type="vehicle.nissan.micra"/>
    <trip id="103" depart="92.70" from="-49.0.00" to="-13.0.00" type="vehicle.nissan.micra"/>
    <trip id="104" depart="93.60" from="-47.0.00" to="8.0.00" type="vehicle.nissan.micra"/>
    <trip id="105" depart="94.50" from="-36.0.00" to="36.0.00" type="vehicle.nissan.micra"/>
    <trip id="106" depart="95.40" from="-7.0.00" to="-50.0.00" type="vehicle.nissan.micra"/>
    <trip id="107" depart="96.30" from="52.0.00" to="9.0.00" type="vehicle.nissan.micra"/>
    <trip id="108" depart="97.20" from="14.0.00" to="3.0.00" type="vehicle.nissan.micra"/>
    <trip id="109" depart="98.10" from="-20.0.00" to="-38.0.00" type="vehicle.nissan.micra"/>
    <trip id="110" depart="99.00" from="7.0.00" to="16.0.00" type="vehicle.nissan.micra"/>
    <trip id="111" depart="99.90" from="13.0.00" to="33.0.00" type="vehicle.nissan.micra"/>
    <trip id="112" depart="100.80" from="-12.0.00" to="16.0.00" type="vehicle.nissan.micra"/>
    <trip id="113" depart="101.70" from="1.0.00" to="42.0.00" type="vehicle.nissan.micra"/>
    <trip id="114" depart="102.60" from="-20.0.00" to="52.0.00" type="vehicle.nissan.micra"/>
    <trip id="115" depart="103.50" from="-14.0.00" to="-25.0.00" type="vehicle.nissan.micra"/>
    <trip id="116" depart="104.40" from="17.0.00" to="26.0.00" type="vehicle.nissan.micra"/>
    <trip id="117" depart="105.30" from="-29.0.00" to="-18.0.00" type="vehicle.nissan.micra"/>
    <trip id="118" depart="106.20" from="46.0.00" to="-3.0.00" type="vehicle.nissan.micra"/>
    <trip id="119" depart="107.10" from="17.0.00" to="19.0.00" type="vehicle.nissan.micra"/>
    <trip id="120" depart="108.00" from="-50.0.00" to="16.0.00" type="vehicle.nissan.micra"/>
    <trip id="121" depart="108.90" from="11.0.00" to="5.0.00" type="vehicle.nissan.micra"/>
    <trip id="122" depart="109.80" from="-26.0.00" to="3.0.00" type="vehicle.nissan.micra"/>
    <trip id="123" depart="110.70" from="-29.0.00" to="-49.0.00" type="vehicle.nissan.micra"/>
    <trip id="124" depart="111.60" from="26.0.00" to="-39.0.00" type="vehicle.nissan.micra"/>
    <trip id="125" depart="112.50" from="-4.0.00" to="33.0.00" type="vehicle.nissan.micra"/>
    <trip id="126" depart="113.40" from="-14.0.00" to="-7.0.00" type="vehicle.nissan.micra"/>
    <trip id="127" depart="114.30" from="9.0.00" to="9.0.00" type="vehicle.nissan.micra"/>
    <trip id="128" depart="115.20" from="-14.0.00" to="-27.0.00" type="vehicle.nissan.micra"/>
    <trip id="129" depart="116.10" from="-36.0.00" to="5.0.00" type="vehicle.nissan.micra"/>
    <trip id="130" depart="117.00" from="45.0.00" to="45.0.00" type="vehicle.nissan.micra"/>
    <trip id="131" depart="117.90" from="-47.0.00" to="-20.0.00" type="vehicle.nissan.micra"/>
    <trip id="132" depart="118.80" from="4.0.00" to="29.0.00" type="vehicle.nissan.micra"/>
    <trip id="133" depart="119.70" from="19.0.00" to="8.0.00" type="vehicle.nissan.micra"/>
    <trip id="134" depart="120.60" from="24.0.00" to="-0.0.00" type="vehicle.nissan.micra"/>
    <trip id="135" depart="121.50" from="39.0.00" to="-39.0.00" type="vehicle.nissan.micra"/>
    <trip id="136" depart="122.40" from="25.0.00" to="5.0.00" type="vehicle.nissan.micra"/>
    <trip id="137" depart="123.30" from="-19.0.00" to="-18.0.00" type="vehicle.nissan.micra"/>
    <trip id="138" depart="124.20" from="-17.0.00" to="14.0.00" type="vehicle.nissan.micra"/>
    <trip id="139" depart="125.10" from="-36.0.00" to="18.0.00" type="vehicle.nissan.micra"/>
    <trip id="140" depart="126.00" from="3.0.00" to="-26.0.00" type="vehicle.nissan.micra"/>
    <trip id="141" depart="126.90" from="21.0.00" to="-30.0.00" type="vehicle.nissan.micra"/>
    <trip id="142" depart="127.80" from="0.0.00" to="47.0.00" type="vehicle.nissan.micra"/>
    <trip id="143" depart="128.70" from="40.0.00" to="-16.0.00" type="vehicle.nissan.micra"/>
    <trip id="144" depart="129.60" from="-50.0.00" to="-37.0.00" type="vehicle.nissan.micra"/>
    <trip id="145" depart="130.50" from="-0.0.00" to="35.0.00" type="vehicle.nissan.micra"/>
    <trip id="146" depart="131.40" from="21.0.00" to="-30.0.00" type="vehicle.nissan.micra"/>
    <trip id="147" depart="132.30" from="31.0.00" to="13.0.00" type="vehicle.nissan.micra"/>
    <trip id="148" depart="133.20" from="-51.0.00" to="-0.0.00" type="vehicle.nissan.micra"/>
    <trip id="149" depart="134.10" from="-14.0.00" to="45.0.00" type="vehicle.nissan.micra"/>
    <trip id="150" depart="135.00" from="47.0.00" to="13.0.00" type="vehicle.nissan.micra"/>
    <trip id="151" depart="135.90" from="4.0.00" to="16.0.00" type="vehicle.nissan.micra"/>
    <trip id="152" depart="136.80" from="-2.0.00" to="-19.0.00" type="vehicle.nissan.micra"/>
    <trip id="153" depart="137.70" from="-39.0.00" to="47.0.00" type="vehicle.nissan.micra"/>
    <trip id="154" depart="138.60" from="37.0.00" to="42.0.00" type="vehicle.nissan.micra"/>
    <trip id="155" depart="139.50" from="47.0.00" to="-27.0.00" type="vehicle.nissan.micra"/>
    <trip id="156" depart="140.40" from="-3.0.00" to="-16.0.00" type="vehicle.nissan.micra"/>
    <trip id="157" depart="141.30" from="35.0.00" to="45.0.00" type="vehicle.nissan.micra"/>
    <trip id="158" depart="142.20" from="-5.0.00" to="19.0.00" type="vehicle.nissan.micra"/>
    <trip id="159" depart="143.10" from="-20.0.00" to="49.0.00" type="vehicle.nissan.micra"/>
    <trip id="160" depart="144.00" from="44.0.00" to="7.0.00" type="vehicle.nissan.micra"/>
    <trip id="161" depart="144.90" from="38.0.00" to="45.0.00" type="vehicle.nissan.micra"/>
    <trip id="162" depart="145.80" from="-10.0.00" to="31.0.00" type="vehicle.nissan.micra"/>
    <trip id="163" depart="146.70" from="-40.0.00" to="49.0.00" type="vehicle.nissan.micra"/>
    <trip id="164" depart="147.60" from="37.0.00" to="44.0.00" type="vehicle.nissan.micra"/>
    <trip id="165" depart="148.50" from="38.0.00" to="-36.0.00" type="vehicle.nissan.micra"/>
    <trip id="166" depart="149.40" from="36.0.00" to="-17.0.00" type="vehicle.nissan.micra"/>
    <trip id="167" depart="150.30" from="44.0.00" to="42.0.00" type="vehicle.nissan.micra"/>
    <trip id="168" depart="151.20" from="-28.0.00" to="39.0.00" type="vehicle.nissan.micra"/>
    <trip id="169" depart="152.10" from="-8.0.00" to="-39.0.00" type="vehicle.nissan.micra"/>
    <trip id="170" depart="153.00" from="37.0.00" to="-28.0.00" type="vehicle.nissan.micra"/>
    <trip id="171" depart="153.90" from="-10.0.00" to="-25.0.00" type="vehicle.nissan.micra"/>
    <trip id="172" depart="154.80" from="-40.0.00" to="44.0.00" type="vehicle.nissan.micra"/>
    <trip id="173" depart="155.70" from="7.0.00" to="-37.0.00" type="vehicle.nissan.micra"/>
    <trip id="174" depart="156.60" from="21.0.00" to="-49.0.00" type="vehicle.nissan.micra"/>
    <trip id="175" depart="157.50" from="8.0.00" to="12.0.00" type="vehicle.nissan.micra"/>
    <trip id="176" depart="158.40" from="5.0.00" to="-18.0.00" type="vehicle.nissan.micra"/>
    <trip id="177" depart="159.30" from="7.0.00" to="-23.0.00" type="vehicle.nissan.micra"/>
    <trip id="178" depart="160.20" from="52.0.00" to="-36.0.00" type="vehicle.nissan.micra"/>
    <trip id="179" depart="161.10" from="-17.0.00" to="-51.0.00" type="vehicle.nissan.micra"/>
    <trip id="180" depart="162.00" from="30.0.00" to="-4.0.00" type="vehicle.nissan.micra"/>
    <trip id="181" depart="162.90" from="18.0.00" to="10.0.00" type="vehicle.nissan.micra"/>
    <trip id="182" depart="163.80" from="-48.0.00" to="16.0.00" type="vehicle.nissan.micra"/>
    <trip id="183" depart="164.70" from="-30.0.00" to="29.0.00" type="vehicle.nissan.micra"/>
    <trip id="184" depart="165.60" from="-0.0.00" to="49.0.00" type="vehicle.nissan.micra"/>
    <trip id="185" depart="166.50" from="12.0.00" to="3.0.00" type="vehicle.nissan.micra"/>
    <trip id="186" depart="167.40" from="31.0.00" to="26.0.00" type="vehicle.nissan.micra"/>
    <trip id="187" depart="168.30" from="-46.0.00" to="-14.0.00" type="vehicle.nissan.micra"/>
    <trip id="188" depart="169.20" from="25.0.00" to="-40.0.00" type="vehicle.nissan.micra"/>
    <trip id="189" depart="170.10" from="-4.0.00" to="40.0.00" type="vehicle.nissan.micra"/>
    <trip id="190" depart="171.00" from="3.0.00" to="-39.0.00" type="vehicle.nissan.micra"/>
    <trip id="191" depart="171.90" from="-39.0.00" to="-5.0.00" type="vehicle.nissan.micra"/>
    <trip id="192" depart="172.80" from="-5.0.00" to="-38.0.00" type="vehicle.nissan.micra"/>
    <trip id="193" depart="173.70" from="-19.0.00" to="-50.0.00" type="vehicle.nissan.micra"/>
    <trip id="194" depart="174.60" from="5.0.00" to="26.0.00" type="vehicle.nissan.micra"/>
    <trip id="195" depart="175.50" from="47.0.00" to="19.0.00" type="vehicle.nissan.micra"/>
    <trip id="196" depart="176.40" from="-39.0.00" to="13.0.00" type="vehicle.nissan.micra"/>
    <trip id="197" depart="177.30" from="-0.0.00" to="-37.0.00" type="vehicle.nissan.micra"/>
    <trip id="198" depart="178.20" from="-51.0.00" to="16.0.00" type="vehicle.nissan.micra"/>
    <trip id="199" depart="179.10" from="24.0.00" to="-8.0.00" type="vehicle.nissan.micra"/>
    <trip id="200" depart="180.00" from="-52.0.00" to="-27.0.00" type="vehicle.nissan.micra"/>
    <trip id="201" depart="180.90" from="-9.0.00" to="47.0.00" type="vehicle.nissan.micra"/>
    <trip id="202" depart="181.80" from="37.0.00" to="-22.0.00" type="vehicle.nissan.micra"/>
    <trip id="203" depart="182.70" from="-15.0.00" to="10.0.00" type="vehicle.nissan.micra"/>
    <trip id="204" depart="183.60" from="21.0.00" to="-41.0.00" type="vehicle.nissan.micra"/>
    <trip id="205" depart="184.50" from="39.0.00" to="33.0.00" type="vehicle.nissan.micra"/>
    <trip id="206" depart="185.40" from="26.0.00" to="-28.0.00" type="vehicle.nissan.micra"/>
    <trip id="207" depart="186.30" from="-26.0.00" to="-10.0.00" type="vehicle.nissan.micra"/>
    <trip id="208" depart="187.20" from="-3.0.00" to="-9.0.00" type="vehicle.nissan.micra"/>
    <trip id="209" depart="188.10" from="40.0.00" to="-14.0.00" type="vehicle.nissan.micra"/>
    <trip id="210" depart="189.00" from="-50.0.00" to="2.0.00" type="vehicle.nissan.micra"/>
    <trip id="211" depart="189.90" from="-25.0.00" to="28.0.00" type="vehicle.nissan.micra"/>
    <trip id="212" depart="190.80" from="1.0.00" to="-3.0.00" type="vehicle.nissan.micra"/>
    <trip id="213" depart="191.70" from="25.0.00" to="-0.0.00" type="vehicle.nissan.micra"/>
    <trip id="214" depart="192.60" from="33.0.00" to="34.0.00" type="vehicle.nissan.micra"/>
    <trip id="215" depart="193.50" from="-17.0.00" to="-50.0.00" type="vehicle.nissan.micra"/>
    <trip id="216" depart="194.40" from="-23.0.00" to="52.0.00" type="vehicle.nissan.micra"/>
    <trip id="217" depart="195.30" from="11.0.00" to="-12.0.00" type="vehicle.nissan.micra"/>
    <trip id="218" depart="196.20" from="-3.0.00" to="40.0.00" type="vehicle.nissan.micra"/>
    <trip id="219" depart="197.10" from="-7.0.00" to="37.0.00" type="vehicle.nissan.micra"/>
    <trip id="220" depart="198.00" from="26.0.00" to="8.0.00" type="vehicle.nissan.micra"/>
    <trip id="221" depart="198.90" from="17.0.00" to="51.0.00" type="vehicle.nissan.micra"/>
    <trip id="222" depart="199.80" from="46.0.00" to="19.0.00" type="vehicle.nissan.micra"/>
    <trip id="223" depart="200.70" from="3.0.00" to="1.0.00" type="vehicle.nissan.micra"/>
    <trip id="224" depart="201.60" from="4.0.00" to="13.0.00" type="vehicle.nissan.micra"/>
    <trip id="225" depart="202.50" from="47.0.00" to="31.0.00" type="vehicle.nissan.micra"/>
    <trip id="226" depart="203.40" from="-9.0.00" to="-30.0.00" type="vehicle.nissan.micra"/>
    <trip id="227" depart="204.30" from="-3.0.00" to="21.0.00" type="vehicle.nissan.micra"/>
    <trip id="228" depart="205.20" from="34.0.00" to="11.0.00" type="vehicle.nissan.micra"/>
    <trip id="229" depart="206.10" from="2.0.00" to="-36.0.00" type="vehicle.nissan.micra"/>
    <trip id="230" depart="207.00" from="-14.0.00" to="-37.0.00" type="vehicle.nissan.micra"/>
    <trip id="231" depart="207.90" from="-36.0.00" to="-4.0.00" type="vehicle.nissan.micra"/>
    <trip id="232" depart="208.80" from="12.0.00" to="-2.0.00" type="vehicle.nissan.micra"/>
    <trip id="233" depart="209.70" from="-29.0.00" to="28.0.00" type="vehicle.nissan.micra"/>
    <trip id="234" depart="210.60" from="29.0.00" to="-13.0.00" type="vehicle.nissan.micra"/>
    <trip id="235" depart="211.50" from="-5.0.00" to="13.0.00" type="vehicle.nissan.micra"/>
    <trip id="236" depart="212.40" from="-50.0.00" to="-26.0.00" type="vehicle.nissan.micra"/>
    <trip id="237" depart="213.30" from="-50.0.00" to="47.0.00" type="vehicle.nissan.micra"/>
    <trip id="238" depart="214.20" from="16.0.00" to="28.0.00" type="vehicle.nissan.micra"/>
    <trip id="239" depart="215.10" from="42.0.00" to="34.0.00" type="vehicle.nissan.micra"/>
    <trip id="240" depart="216.00" from="-48.0.00" to="-0.0.00" type="vehicle.nissan.micra"/>
    <trip id="241" depart="216.90" from="-43.0.00" to="33.0.00" type="vehicle.nissan.micra"/>
    <trip id="242" depart="217.80" from="42.0.00" to="51.0.00" type="vehicle.nissan.micra"/>
    <trip id="243" depart="218.70" from="-50.0.00" to="33.0.00" type="vehicle.nissan.micra"/>
    <trip id="244" depart="219.60" from="13.0.00" to="18.0.00" type="vehicle.nissan.micra"/>
    <trip id="245" depart="220.50" from="-28.0.00" to="-28.0.00" type="vehicle.nissan.micra"/>
    <trip id="246" depart="221.40" from="-51.0.00" to="-10.0.00" type="vehicle.nissan.micra"/>
    <trip id="247" depart="222.30" from="-41.0.00" to="27.0.00" type="vehicle.nissan.micra"/>
    <trip id="248" depart="223.20" from="-5.0.00" to="-22.0.00" type="vehicle.nissan.micra"/>
    <trip id="249" depart="224.10" from="-8.0.00" to="-19.0.00" type="vehicle.nissan.micra"/>
    <trip id="250" depart="225.00" from="2.0.00" to="-10.0.00" type="vehicle.nissan.micra"/>
    <trip id="251" depart="225.90" from="-49.0.00" to="15.0.00" type="vehicle.nissan.micra"/>
    <trip id="252" depart="226.80" from="-10.0.00" to="21.0.00" type="vehicle.nissan.micra"/>
    <trip id="253" depart="227.70" from="-19.0.00" to="-8.0.00" type="vehicle.nissan.micra"/>
    <trip id="254" depart="228.60" from="-12.0.00" to="-47.0.00" type="vehicle.nissan.micra"/>
    <trip id="255" depart="229.50" from="-27.0.00" to="-40.0.00" type="vehicle.nissan.micra"/>
    <trip id="256" depart="230.40" from="34.0.00" to="-47.0.00" type="vehicle.nissan.micra"/>
    <trip id="257" depart="231.30" from="33.0.00" to="4.0.00" type="vehicle.nissan.micra"/>
    <trip id="258" depart="232.20" from="-3.0.00" to="-15.0.00" type="vehicle.nissan.micra"/>
    <trip id="259" depart="233.10" from="-1.0.00" to="12.0.00" type="vehicle.nissan.micra"/>
    <trip id="260" depart="234.00" from="9.0.00" to="-43.0.00" type="vehicle.nissan.micra"/>
    <trip id="261" depart="234.90" from="24.0.00" to="35.0.00" type="vehicle.nissan.micra"/>
    <trip id="262" depart="235.80" from="24.0.00" to="33.0.00" type="vehicle.nissan.micra"/>
    <trip id="263" depart="236.70" from="51.0.00" to="-26.0.00" type="vehicle.nissan.micra"/>
    <trip id="264" depart="237.60" from="-1.0.00" to="-20.0.00" type="vehicle.nissan.micra"/>
    <trip id="265" depart="238.50" from="-18.0.00" to="26.0.00" type="vehicle.nissan.micra"/>
    <trip id="266" depart="239.40" from="15.0.00" to="-27.0.00" type="vehicle.nissan.micra"/>
    <trip id="267" depart="240.30" from="28.0.00" to="34.0.00" type="vehicle.nissan.micra"/>
    <trip id="268" depart="241.20" from="-22.0.00" to="18.0.00" type="vehicle.nissan.micra"/>
    <trip id="269" depart="242.10" from="33.0.00" to="-17.0.00" type="vehicle.nissan.micra"/>
    <trip id="270" depart="243.00" from="39.0.00" to="52.0.00" type="vehicle.nissan.micra"/>
    <trip id="271" depart="243.90" from="-17.0.00" to="-10.0.00" type="vehicle.nissan.micra"/>
    <trip id="272" depart="244.80" from="-4.0.00" to="26.0.00" type="vehicle.nissan.micra"/>
    <trip id="273" depart="245.70" from="52.0.00" to="-49.0.00" type="vehicle.nissan.micra"/>
    <trip id="274" depart="246.60" from="3.0.00" to="-14.0.00" type="vehicle.nissan.micra"/>
    <trip id="275" depart="247.50" from="28.0.00" to="2.0.00" type="vehicle.nissan.micra"/>
    <trip id="276" depart="248.40" from="-16.0.00" to="35.0.00" type="vehicle.nissan.micra"/>
    <trip id="277" depart="249.30" from="40.0.00" to="18.0.00" type="vehicle.nissan.micra"/>
    <trip id="278" depart="250.20" from="-18.0.00" to="8.0.00" type="vehicle.nissan.micra"/>
    <trip id="279" depart="251.10" from="36.0.00" to="-43.0.00" type="vehicle.nissan.micra"/>
    <trip id="280" depart="252.00" from="-51.0.00" to="-47.0.00" type="vehicle.nissan.micra"/>
    <trip id="281" depart="252.90" from="10.0.00" to="-41.0.00" type="vehicle.nissan.micra"/>
    <trip id="282" depart="253.80" from="40.0.00" to="39.0.00" type="vehicle.nissan.micra"/>
    <trip id="283" depart="254.70" from="-17.0.00" to="52.0.00" type="vehicle.nissan.micra"/>
    <trip id="284" depart="255.60" from="21.0.00" to="4.0.00" type="vehicle.nissan.micra"/>
    <trip id="285" depart="256.50" from="29.0.00" to="-51.0.00" type="vehicle.nissan.micra"/>
    <trip id="286" depart="257.40" from="30.0.00" to="52.0.00" type="vehicle.nissan.micra"/>
    <trip id="287" depart="258.30" from="-36.0.00" to="38.0.00" type="vehicle.nissan.micra"/>
    <trip id="288" depart="259.20" from="12.0.00" to="0.0.00" type="vehicle.nissan.micra"/>
    <trip id="289" depart="260.10" from="-51.0.00" to="30.0.00" type="vehicle.nissan.micra"/>
    <trip id="290" depart="261.00" from="-36.0.00" to="42.0.00" type="vehicle.nissan.micra"/>
    <trip id="291" depart="261.90" from="4.0.00" to="-15.0.00" type="vehicle.nissan.micra"/>
    <trip id="292" depart="262.80" from="45.0.00" to="-3.0.00" type="vehicle.nissan.micra"/>
    <trip id="293" depart="263.70" from="-8.0.00" to="19.0.00" type="vehicle.nissan.micra"/>
    <trip id="294" depart="264.60" from="-47.0.00" to="-10.0.00" type="vehicle.nissan.micra"/>
    <trip id="295" depart="265.50" from="42.0.00" to="-23.0.00" type="vehicle.nissan.micra"/>
    <trip id="296" depart="266.40" from="-27.0.00" to="37.0.00" type="vehicle.nissan.micra"/>
    <trip id="297" depart="267.30" from="-41.0.00" to="45.0.00" type="vehicle.nissan.micra"/>
    <trip id="298" depart="268.20" from="29.0.00" to="-37.0.00" type="vehicle.nissan.micra"/>
    <trip id="299" depart="269.10" from="-0.0.00" to="51.0.00" type="vehicle.nissan.micra"/>
    <trip id="300" depart="270.00" from="-15.0.00" to="3.0.00" type="vehicle.nissan.micra"/>
    <trip id="301" depart="270.90" from="0.0.00" to="33.0.00" type="vehicle.nissan.micra"/>
    <trip id="302" depart="271.80" from="28.0.00" to="24.0.00" type="vehicle.nissan.micra"/>
    <trip id="303" depart="272.70" from="0.0.00" to="36.0.00" type="vehicle.nissan.micra"/>
    <trip id="304" depart="273.60" from="-16.0.00" to="-28.0.00" type="vehicle.nissan.micra"/>
    <trip id="305" depart="274.50" from="28.0.00" to="-39.0.00" type="vehicle.nissan.micra"/>
    <trip id="306" depart="275.40" from="16.0.00" to="-9.0.00" type="vehicle.nissan.micra"/>
    <trip id="307" depart="276.30" from="12.0.00" to="-51.0.00" type="vehicle.nissan.micra"/>
    <trip id="308" depart="277.20" from="31.0.00" to="-40.0.00" type="vehicle.nissan.micra"/>
    <trip id="309" depart="278.10" from="29.0.00" to="-36.0.00" type="vehicle.nissan.micra"/>
    <trip id="310" depart="279.00" from="-3.0.00" to="-18.0.00" type="vehicle.nissan.micra"/>
    <trip id="311" depart="279.90" from="-25.0.00" to="-18.0.00" type="vehicle.nissan.micra"/>
    <trip id="312" depart="280.80" from="12.0.00" to="34.0.00" type="vehicle.nissan.micra"/>
    <trip id="313" depart="281.70" from="-25.0.00" to="-27.0.00" type="vehicle.nissan.micra"/>
    <trip id="314" depart="282.60" from="0.0.00" to="30.0.00" type="vehicle.nissan.micra"/>
    <trip id="315" depart="283.50" from="7.0.00" to="11.0.00" type="vehicle.nissan.micra"/>
    <trip id="316" depart="284.40" from="-37.0.00" to="-16.0.00" type="vehicle.nissan.micra"/>