<?xml version="1.0" encoding="UTF-8"?>
<!-- generated on 2021-12-08 13:38:09.172270 by randomTrips.py v1_10_0+1788-4a48687524d
  options: -n Tjunction.net.xml -e 30 -o Tjunction.trips.xml
-->
<routes xmlns:xsi="http://www.w3.org/2001/XMLSchema-instance" xsi:noNamespaceSchemaLocation="http://sumo.dlr.de/xsd/routes_file.xsd">
    <trip id="0" depart="0.00" from="e24" to="e41"/>
    <trip id="1" depart="1.00" from="e14" to="e41"/>
    <trip id="2" depart="2.00" from="e34" to="e43"/>
    <trip id="3" depart="3.00" from="e34" to="e41"/>
    <trip id="4" depart="4.00" from="e24" to="e41"/>
    <trip id="5" depart="5.00" from="e14" to="e43"/>
    <trip id="6" depart="6.00" from="e14" to="e41"/>
    <trip id="7" depart="7.00" from="e24" to="e43"/>
    <trip id="8" depart="8.00" from="e14" to="e43"/>
    <trip id="9" depart="9.00" from="e34" to="e41"/>
    <trip id="10" depart="10.00" from="e34" to="e43"/>
    <trip id="11" depart="11.00" from="e24" to="e41"/>
    <trip id="12" depart="12.00" from="e34" to="e41"/>
    <trip id="13" depart="13.00" from="e14" to="e41"/>
    <trip id="14" depart="14.00" from="e34" to="e43"/>
    <trip id="15" depart="15.00" from="e34" to="e43"/>
    <trip id="16" depart="16.00" from="e24" to="e43"/>
    <trip id="17" depart="17.00" from="e24" to="e43"/>
    <trip id="18" depart="18.00" from="e34" to="e43"/>
    <trip id="19" depart="19.00" from="e34" to="e43"/>
    <trip id="20" depart="20.00" from="e34" to="e41"/>
    <trip id="21" depart="21.00" from="e14" to="e41"/>
    <trip id="22" depart="22.00" from="e14" to="e41"/>
    <trip id="23" depart="23.00" from="e14" to="e41"/>
    <trip id="24" depart="24.00" from="e24" to="e41"/>
    <trip id="25" depart="25.00" from="e24" to="e41"/>
    <trip id="26" depart="26.00" from="e14" to="e43"/>
    <trip id="27" depart="27.00" from="e24" to="e43"/>
    <trip id="28" depart="28.00" from="e14" to="e43"/>
    <trip id="29" depart="29.00" from="e14" to="e41"/>
</routes>
