<?xml version="1.0" encoding="UTF-8"?>

<!-- generated on 2023-01-24 17:35:20 by Eclipse SUMO netconvert Version 1.15.0
<configuration xmlns:xsi="http://www.w3.org/2001/XMLSchema-instance" xsi:noNamespaceSchemaLocation="http://sumo.dlr.de/xsd/netconvertConfiguration.xsd">

    <input>
        <sumo-net-file value="lust.net.xml"/>
        <polygon-files value="lust.poly.xml"/>
    </input>

    <output>
        <output-file value="mini_lust.net.xml"/>
        <polygon-output value="mini_lust.poly.xml"/>
    </output>

    <processing>
        <geometry.min-radius.fix.railways value="false"/>
        <geometry.max-grade.fix value="false"/>
        <offset.disable-normalization value="true"/>
        <lefthand value="0"/>
    </processing>

    <edge_removal>
        <keep-edges.in-boundary value="2300,5400,6300,6300"/>
    </edge_removal>

    <junctions>
        <no-turnarounds value="true"/>
        <junctions.corner-detail value="0"/>
        <junctions.limit-turn-speed value="-1.00"/>
        <rectangular-lane-cut value="0"/>
    </junctions>

    <pedestrian>
        <walkingareas value="0"/>
    </pedestrian>

</configuration>
-->

<net version="1.9" xmlns:xsi="http://www.w3.org/2001/XMLSchema-instance" xsi:noNamespaceSchemaLocation="http://sumo.dlr.de/xsd/net_file.xsd">

    <location netOffset="-285448.66,-5492398.13" convBoundary="1814.88,4605.68,6672.94,6525.49" origBoundary="6.030969,49.549099,6.216758,49.652578" projParameter="+proj=utm +zone=32 +ellps=WGS84 +datum=WGS84 +units=m +no_defs"/>

    <edge id=":-10564_0" function="internal">
        <lane id=":-10564_0_0" index="0" speed="13.89" length="8.68" shape="5391.08,5470.96 5389.00,5471.23 5387.17,5472.09 5385.59,5473.54 5384.27,5475.57"/>
    </edge>
    <edge id=":-10564_1" function="internal">
        <lane id=":-10564_1_0" index="0" speed="13.89" length="12.29" shape="5391.08,5470.96 5387.77,5470.73 5385.04,5470.06 5382.50,5468.85 5379.71,5467.00"/>
    </edge>
    <edge id=":-10564_2" function="internal">
        <lane id=":-10564_2_0" index="0" speed="13.89" length="10.38" shape="5381.58,5464.40 5384.08,5466.15 5385.99,5467.16 5388.08,5467.63 5391.11,5467.76"/>
    </edge>
    <edge id=":-10564_3" function="internal">
        <lane id=":-10564_3_0" index="0" speed="13.89" length="3.42" shape="5381.58,5464.40 5384.05,5466.76"/>
    </edge>
    <edge id=":-10564_6" function="internal">
        <lane id=":-10564_6_0" index="0" speed="13.89" length="9.29" shape="5384.05,5466.76 5385.33,5469.40 5385.40,5472.34 5384.27,5475.57"/>
    </edge>
    <edge id=":-10564_4" function="internal">
        <lane id=":-10564_4_0" index="0" speed="13.89" length="8.09" shape="5381.43,5474.11 5382.14,5472.05 5382.10,5470.19 5381.29,5468.50 5379.71,5467.00"/>
    </edge>
    <edge id=":-10564_5" function="internal">
        <lane id=":-10564_5_0" index="0" speed="13.89" length="12.23" shape="5381.43,5474.11 5383.26,5471.31 5385.49,5469.32 5388.10,5468.14 5391.11,5467.76"/>
    </edge>
    <edge id=":-10632_0" function="internal">
        <lane id=":-10632_0_0" index="0" speed="13.89" length="16.26" shape="5337.00,5582.06 5333.25,5580.84 5329.41,5579.17 5325.74,5577.16 5322.49,5574.93"/>
    </edge>
    <edge id=":-10632_1" function="internal">
        <lane id=":-10632_1_0" index="0" speed="13.89" length="4.81" shape="5337.00,5582.06 5333.06,5580.40 5332.71,5580.00"/>
    </edge>
    <edge id=":-10632_6" function="internal">
        <lane id=":-10632_6_0" index="0" speed="13.89" length="10.28" shape="5332.71,5580.00 5330.90,5577.94 5330.51,5574.70 5331.90,5570.65"/>
    </edge>
    <edge id=":-10632_2" function="internal">
        <lane id=":-10632_2_0" index="0" speed="13.89" length="9.06" shape="5334.75,5572.11 5333.91,5574.54 5334.15,5576.49 5335.45,5577.97 5337.81,5578.96"/>
    </edge>
    <edge id=":-10632_3" function="internal">
        <lane id=":-10632_3_0" index="0" speed="13.89" length="15.05" shape="5334.75,5572.11 5332.29,5575.60 5329.42,5577.23 5326.16,5577.00 5322.49,5574.93"/>
    </edge>
    <edge id=":-10632_4" function="internal">
        <lane id=":-10632_4_0" index="0" speed="13.89" length="9.15" shape="5324.46,5572.40 5326.68,5573.66 5328.66,5573.78 5330.40,5572.78 5331.90,5570.65"/>
    </edge>
    <edge id=":-10632_5" function="internal">
        <lane id=":-10632_5_0" index="0" speed="13.89" length="14.98" shape="5324.46,5572.40 5327.53,5574.54 5330.80,5576.36 5334.24,5577.83 5337.81,5578.96"/>
    </edge>
    <edge id=":-11474_0" function="internal">
        <lane id=":-11474_0_0" index="0" speed="13.89" length="10.17" shape="5739.02,6266.67 5736.69,6265.97 5734.43,6266.21 5732.26,6267.39 5730.17,6269.52"/>
    </edge>
    <edge id=":-11474_1" function="internal">
        <lane id=":-11474_1_0" index="0" speed="13.89" length="14.54" shape="5739.02,6266.67 5726.00,6260.20"/>
    </edge>
    <edge id=":-11474_2" function="internal">
        <lane id=":-11474_2_0" index="0" speed="13.89" length="14.54" shape="5727.43,6257.33 5740.44,6263.81"/>
    </edge>
    <edge id=":-11474_3" function="internal">
        <lane id=":-11474_3_0" index="0" speed="13.89" length="4.25" shape="5727.43,6257.33 5730.92,6259.75"/>
    </edge>
    <edge id=":-11474_6" function="internal">
        <lane id=":-11474_6_0" index="0" speed="13.89" length="10.79" shape="5730.92,6259.75 5732.55,6262.59 5732.29,6265.84 5730.17,6269.52"/>
    </edge>
    <edge id=":-11474_4" function="internal">
        <lane id=":-11474_4_0" index="0" speed="13.89" length="9.06" shape="5727.65,6267.54 5728.94,6265.33 5729.09,6263.36 5728.11,6261.65 5726.00,6260.20"/>
    </edge>
    <edge id=":-11474_5" function="internal">
        <lane id=":-11474_5_0" index="0" speed="13.89" length="14.58" shape="5727.65,6267.54 5730.60,6264.59 5733.71,6262.98 5736.99,6262.72 5740.44,6263.81"/>
    </edge>
    <edge id=":-11534_0" function="internal">
        <lane id=":-11534_0_0" index="0" speed="13.89" length="8.08" shape="4659.85,5792.04 4658.20,5793.11 4657.01,5794.57 4656.28,5796.41 4656.00,5798.64"/>
    </edge>
    <edge id=":-11534_1" function="internal">
        <lane id=":-11534_1_0" index="0" speed="13.89" length="11.61" shape="4659.85,5792.04 4656.86,5793.27 4654.35,5793.81 4651.77,5793.72 4648.61,5793.04"/>
    </edge>
    <edge id=":-11534_2" function="internal">
        <lane id=":-11534_2_0" index="0" speed="13.89" length="7.57" shape="4652.80,5798.57 4652.57,5796.57 4651.80,5794.98 4650.48,5793.81 4648.61,5793.04"/>
    </edge>
    <edge id=":-11556_0" function="internal">
        <lane id=":-11556_0_0" index="0" speed="27.77" length="0.29" shape="5367.93,5840.32 5367.59,5840.36"/>
        <lane id=":-11556_0_1" index="1" speed="27.77" length="0.29" shape="5367.53,5837.14 5367.25,5837.18"/>
        <lane id=":-11556_0_2" index="2" speed="27.77" length="0.29" shape="5367.13,5833.97 5366.90,5833.99"/>
    </edge>
    <edge id=":-11754_0" function="internal">
        <lane id=":-11754_0_0" index="0" speed="15.28" length="13.24" shape="4598.76,6128.42 4595.27,6129.49 4592.59,6131.24 4590.72,6133.69 4589.65,6136.82"/>
    </edge>
    <edge id=":-11754_1" function="internal">
        <lane id=":-11754_1_0" index="0" speed="16.67" length="17.23" shape="4598.76,6128.42 4581.55,6130.80"/>
        <lane id=":-11754_1_1" index="1" speed="16.67" length="17.23" shape="4598.17,6125.27 4581.24,6127.61"/>
    </edge>
    <edge id=":-11754_3" function="internal">
        <lane id=":-11754_3_0" index="0" speed="15.28" length="4.16" shape="4598.17,6125.27 4594.01,6125.26"/>
    </edge>
    <edge id=":-11754_14" function="internal">
        <lane id=":-11754_14_0" index="0" speed="15.28" length="13.18" shape="4594.01,6125.26 4590.86,6123.48 4588.72,6119.94 4587.60,6114.64"/>
    </edge>
    <edge id=":-11754_4" function="internal">
        <lane id=":-11754_4_0" index="0" speed="15.28" length="9.04" shape="4590.78,6114.32 4591.38,6116.75 4592.62,6118.34 4594.49,6119.08 4597.00,6118.98"/>
    </edge>
    <edge id=":-11754_5" function="internal">
        <lane id=":-11754_5_0" index="0" speed="13.89" length="22.57" shape="4590.78,6114.32 4590.95,6119.24 4590.75,6125.59 4590.29,6131.94 4589.65,6136.82"/>
    </edge>
    <edge id=":-11754_6" function="internal">
        <lane id=":-11754_6_0" index="0" speed="15.28" length="6.35" shape="4590.78,6114.32 4590.64,6119.74 4590.29,6120.60"/>
    </edge>
    <edge id=":-11754_15" function="internal">
        <lane id=":-11754_15_0" index="0" speed="15.28" length="12.30" shape="4590.29,6120.60 4589.00,6123.76 4585.87,6126.38 4581.24,6127.61"/>
    </edge>
    <edge id=":-11754_7" function="internal">
        <lane id=":-11754_7_0" index="0" speed="15.28" length="10.92" shape="4580.61,6121.24 4583.89,6120.55 4586.14,6119.22 4587.38,6117.25 4587.60,6114.64"/>
    </edge>
    <edge id=":-11754_8" function="internal">
        <lane id=":-11754_8_0" index="0" speed="16.67" length="16.68" shape="4580.61,6121.24 4597.00,6118.98"/>
        <lane id=":-11754_8_1" index="1" speed="16.67" length="16.68" shape="4580.92,6124.43 4597.58,6122.12"/>
    </edge>
    <edge id=":-11754_10" function="internal">
        <lane id=":-11754_10_0" index="0" speed="15.28" length="3.40" shape="4580.92,6124.43 4584.32,6124.68"/>
    </edge>
    <edge id=":-11754_16" function="internal">
        <lane id=":-11754_16_0" index="0" speed="15.28" length="15.22" shape="4584.32,6124.68 4585.71,6124.79 4588.75,6126.97 4590.07,6130.99 4589.65,6136.82"/>
    </edge>
    <edge id=":-11754_11" function="internal">
        <lane id=":-11754_11_0" index="0" speed="15.28" length="9.08" shape="4586.51,6136.23 4586.63,6133.63 4585.84,6131.85 4584.15,6130.91 4581.55,6130.80"/>
    </edge>
    <edge id=":-11754_12" function="internal">
        <lane id=":-11754_12_0" index="0" speed="13.89" length="21.66" shape="4586.51,6136.23 4587.14,6131.48 4587.59,6125.45 4587.77,6119.42 4587.60,6114.64"/>
    </edge>
    <edge id=":-11754_13" function="internal">
        <lane id=":-11754_13_0" index="0" speed="15.28" length="4.81" shape="4586.51,6136.23 4587.82,6131.60"/>
    </edge>
    <edge id=":-11754_17" function="internal">
        <lane id=":-11754_17_0" index="0" speed="15.28" length="14.28" shape="4587.82,6131.60 4588.09,6130.67 4590.46,6126.46 4593.63,6123.61 4597.58,6122.12"/>
    </edge>
    <edge id=":-11848_0" function="internal">
        <lane id=":-11848_0_0" index="0" speed="13.89" length="9.04" shape="4531.61,6279.28 4529.40,6278.10 4527.39,6277.96 4525.58,6278.84 4523.96,6280.76"/>
    </edge>
    <edge id=":-11848_1" function="internal">
        <lane id=":-11848_1_0" index="0" speed="13.89" length="14.57" shape="4531.61,6279.28 4519.82,6270.87"/>
        <lane id=":-11848_1_1" index="1" speed="13.89" length="14.57" shape="4533.50,6276.70 4521.64,6268.23"/>
        <lane id=":-11848_1_2" index="2" speed="13.89" length="14.57" shape="4535.39,6274.12 4523.46,6265.60"/>
    </edge>
    <edge id=":-11848_4" function="internal">
        <lane id=":-11848_4_0" index="0" speed="13.89" length="14.84" shape="4528.92,6257.71 4541.07,6266.38"/>
        <lane id=":-11848_4_1" index="1" speed="13.89" length="14.84" shape="4527.10,6260.34 4539.18,6268.96"/>
        <lane id=":-11848_4_2" index="2" speed="13.89" length="14.84" shape="4525.28,6262.97 4537.28,6271.54"/>
    </edge>
    <edge id=":-11848_7" function="internal">
        <lane id=":-11848_7_0" index="0" speed="13.89" length="3.04" shape="4525.28,6262.97 4527.26,6265.28"/>
    </edge>
    <edge id=":-11848_11" function="internal">
        <lane id=":-11848_11_0" index="0" speed="13.89" length="16.63" shape="4527.26,6265.28 4527.76,6265.85 4528.36,6269.78 4527.10,6274.75 4523.96,6280.76"/>
    </edge>
    <edge id=":-11848_8" function="internal">
        <lane id=":-11848_8_0" index="0" speed="13.89" length="9.36" shape="4521.21,6279.04 4522.31,6276.64 4522.44,6274.48 4521.61,6272.56 4519.82,6270.87"/>
    </edge>
    <edge id=":-11848_9" function="internal">
        <lane id=":-11848_9_0" index="0" speed="13.89" length="23.15" shape="4521.21,6279.04 4526.08,6272.44 4530.70,6268.56 4535.06,6267.40 4539.18,6268.96"/>
        <lane id=":-11848_9_1" index="1" speed="13.89" length="20.19" shape="4521.21,6279.04 4525.32,6273.62 4529.37,6270.56 4533.36,6269.87 4537.28,6271.54"/>
    </edge>
    <edge id=":-11950_0" function="internal">
        <lane id=":-11950_0_0" index="0" speed="13.89" length="10.88" shape="5331.57,5802.82 5332.37,5805.55 5333.68,5807.85 5335.52,5809.72 5337.88,5811.16"/>
        <lane id=":-11950_0_1" index="1" speed="13.89" length="15.35" shape="5328.42,5803.39 5329.52,5806.92 5331.47,5809.98 5334.26,5812.57 5337.89,5814.70"/>
    </edge>
    <edge id=":-11950_2" function="internal">
        <lane id=":-11950_2_0" index="0" speed="13.89" length="9.34" shape="5317.51,5811.51 5319.89,5810.46 5321.45,5808.94 5322.20,5806.96 5322.12,5804.52"/>
    </edge>
    <edge id=":-11950_3" function="internal">
        <lane id=":-11950_3_0" index="0" speed="13.89" length="21.15" shape="5317.51,5811.51 5323.47,5809.67 5327.89,5808.69 5332.22,5809.04 5337.88,5811.16"/>
    </edge>
    <edge id=":-11950_4" function="internal">
        <lane id=":-11950_4_0" index="0" speed="13.89" length="3.02" shape="5317.70,5815.00 5320.17,5813.26"/>
    </edge>
    <edge id=":-11950_5" function="internal">
        <lane id=":-11950_5_0" index="0" speed="13.89" length="21.04" shape="5317.70,5815.00 5322.39,5812.94 5327.31,5812.20 5332.48,5812.78 5337.89,5814.70"/>
    </edge>
    <edge id=":-11950_6" function="internal">
        <lane id=":-11950_6_0" index="0" speed="13.89" length="11.20" shape="5320.17,5813.26 5321.41,5812.38 5323.91,5809.66 5325.20,5806.85 5325.27,5803.95"/>
    </edge>
    <edge id=":-12018_0" function="internal">
        <lane id=":-12018_0_0" index="0" speed="13.89" length="9.21" shape="4371.08,5748.70 4368.77,5747.61 4366.66,5747.48 4364.76,5748.31 4363.07,5750.11"/>
    </edge>
    <edge id=":-12018_1" function="internal">
        <lane id=":-12018_1_0" index="0" speed="13.89" length="14.33" shape="4371.08,5748.70 4368.11,5746.11 4366.73,5743.20 4366.92,5739.99 4368.70,5736.47"/>
    </edge>
    <edge id=":-12018_2" function="internal">
        <lane id=":-12018_2_0" index="0" speed="13.89" length="9.03" shape="4371.32,5738.30 4370.20,5740.52 4370.08,5742.55 4370.95,5744.38 4372.83,5746.02"/>
    </edge>
    <edge id=":-12018_3" function="internal">
        <lane id=":-12018_3_0" index="0" speed="13.89" length="14.40" shape="4371.32,5738.30 4363.07,5750.11"/>
    </edge>
    <edge id=":-12018_4" function="internal">
        <lane id=":-12018_4_0" index="0" speed="13.89" length="14.40" shape="4360.44,5748.27 4368.70,5736.47"/>
    </edge>
    <edge id=":-12018_5" function="internal">
        <lane id=":-12018_5_0" index="0" speed="13.89" length="4.01" shape="4360.44,5748.27 4363.07,5745.48 4363.23,5745.41"/>
    </edge>
    <edge id=":-12018_6" function="internal">
        <lane id=":-12018_6_0" index="0" speed="13.89" length="10.23" shape="4363.23,5745.41 4366.02,5744.17 4369.27,5744.35 4372.83,5746.02"/>
    </edge>
    <edge id=":-12058_0" function="internal">
        <lane id=":-12058_0_0" index="0" speed="13.89" length="8.38" shape="4640.67,5787.82 4639.11,5786.17 4637.37,5785.35 4635.45,5785.35 4633.34,5786.19"/>
    </edge>
    <edge id=":-12058_1" function="internal">
        <lane id=":-12058_1_0" index="0" speed="13.89" length="12.59" shape="4640.67,5787.82 4638.87,5784.95 4637.76,5782.25 4637.27,5779.38 4637.33,5776.01"/>
    </edge>
    <edge id=":-12058_2" function="internal">
        <lane id=":-12058_2_0" index="0" speed="13.89" length="9.63" shape="4631.76,5783.40 4634.06,5781.83 4635.76,5780.08 4636.85,5778.14 4637.33,5776.01"/>
    </edge>
    <edge id=":-12772_0" function="internal">
        <lane id=":-12772_0_0" index="0" speed="16.67" length="12.52" shape="4972.91,6055.73 4969.35,6055.19 4966.88,6055.02 4964.40,6055.09 4960.78,6055.27"/>
        <lane id=":-12772_0_1" index="1" speed="16.67" length="12.52" shape="4973.45,6052.58 4969.69,6052.01 4967.08,6051.82 4964.46,6051.89 4960.65,6052.07"/>
    </edge>
    <edge id=":-12772_2" function="internal">
        <lane id=":-12772_2_0" index="0" speed="15.28" length="2.89" shape="4973.45,6052.58 4970.79,6051.45"/>
    </edge>
    <edge id=":-12772_8" function="internal">
        <lane id=":-12772_8_0" index="0" speed="15.28" length="13.32" shape="4970.79,6051.45 4970.63,6051.38 4968.32,6048.83 4966.50,6044.94 4965.19,6039.69"/>
    </edge>
    <edge id=":-12772_3" function="internal">
        <lane id=":-12772_3_0" index="0" speed="15.28" length="10.11" shape="4968.37,6039.12 4969.17,6041.93 4970.46,6044.05 4972.25,6045.50 4974.53,6046.27"/>
    </edge>
    <edge id=":-12772_4" function="internal">
        <lane id=":-12772_4_0" index="0" speed="15.28" length="17.66" shape="4968.37,6039.12 4968.72,6044.63 4967.55,6048.63 4964.86,6051.11 4960.65,6052.07"/>
    </edge>
    <edge id=":-12772_5" function="internal">
        <lane id=":-12772_5_0" index="0" speed="15.28" length="9.05" shape="4960.39,6045.68 4962.87,6045.21 4964.50,6044.06 4965.27,6042.22 4965.19,6039.69"/>
    </edge>
    <edge id=":-12772_6" function="internal">
        <lane id=":-12772_6_0" index="0" speed="16.67" length="13.87" shape="4960.39,6045.68 4964.60,6045.48 4967.49,6045.42 4970.37,6045.63 4974.53,6046.27"/>
        <lane id=":-12772_6_1" index="1" speed="16.67" length="13.87" shape="4960.52,6048.88 4964.53,6048.68 4967.29,6048.62 4970.03,6048.82 4973.99,6049.42"/>
    </edge>
    <edge id=":-12962_0" function="internal">
        <lane id=":-12962_0_0" index="0" speed="16.67" length="13.30" shape="4730.91,6074.39 4727.27,6075.82 4724.81,6076.85 4722.39,6077.98 4718.88,6079.71"/>
        <lane id=":-12962_0_1" index="1" speed="16.67" length="13.30" shape="4729.74,6071.41 4726.03,6072.87 4723.51,6073.92 4721.04,6075.08 4717.46,6076.84"/>
    </edge>
    <edge id=":-12962_2" function="internal">
        <lane id=":-12962_2_0" index="0" speed="15.28" length="3.59" shape="4729.74,6071.41 4726.21,6072.04"/>
    </edge>
    <edge id=":-12962_8" function="internal">
        <lane id=":-12962_8_0" index="0" speed="15.28" length="12.88" shape="4726.21,6072.04 4726.02,6072.08 4722.71,6071.01 4719.79,6068.22 4717.28,6063.70"/>
    </edge>
    <edge id=":-12962_3" function="internal">
        <lane id=":-12962_3_0" index="0" speed="15.28" length="8.82" shape="4720.22,6062.44 4721.47,6064.50 4723.09,6065.68 4725.07,6066.00 4727.41,6065.45"/>
    </edge>
    <edge id=":-12962_4" function="internal">
        <lane id=":-12962_4_0" index="0" speed="15.28" length="16.40" shape="4720.22,6062.44 4721.78,6067.37 4721.83,6071.41 4720.39,6074.57 4717.46,6076.84"/>
    </edge>
    <edge id=":-12962_5" function="internal">
        <lane id=":-12962_5_0" index="0" speed="15.28" length="8.88" shape="4714.61,6071.11 4716.58,6069.75 4717.69,6068.06 4717.92,6066.04 4717.28,6063.70"/>
    </edge>
    <edge id=":-12962_6" function="internal">
        <lane id=":-12962_6_0" index="0" speed="16.67" length="13.87" shape="4714.61,6071.11 4718.34,6069.27 4720.92,6068.07 4723.54,6066.97 4727.41,6065.45"/>
        <lane id=":-12962_6_1" index="1" speed="16.67" length="13.87" shape="4716.03,6073.98 4719.69,6072.17 4722.21,6070.99 4724.79,6069.92 4728.58,6068.43"/>
    </edge>
    <edge id=":-13926_0" function="internal">
        <lane id=":-13926_0_0" index="0" speed="13.89" length="14.67" shape="6126.77,6167.81 6113.37,6161.82"/>
    </edge>
    <edge id=":-13926_1" function="internal">
        <lane id=":-13926_1_0" index="0" speed="13.89" length="4.42" shape="6126.77,6167.81 6123.03,6165.46"/>
    </edge>
    <edge id=":-13926_6" function="internal">
        <lane id=":-13926_6_0" index="0" speed="13.89" length="11.00" shape="6123.03,6165.46 6121.33,6162.64 6121.66,6159.37 6124.03,6155.64"/>
    </edge>
    <edge id=":-13926_2" function="internal">
        <lane id=":-13926_2_0" index="0" speed="13.89" length="9.08" shape="6126.46,6157.72 6125.06,6159.92 6124.87,6161.85 6125.87,6163.50 6128.07,6164.89"/>
    </edge>
    <edge id=":-13926_3" function="internal">
        <lane id=":-13926_3_0" index="0" speed="13.89" length="14.81" shape="6126.46,6157.72 6123.33,6160.68 6120.11,6162.34 6116.79,6162.73 6113.37,6161.82"/>
    </edge>
    <edge id=":-13926_4" function="internal">
        <lane id=":-13926_4_0" index="0" speed="13.89" length="10.67" shape="6114.68,6158.90 6117.04,6159.49 6119.39,6159.14 6121.72,6157.86 6124.03,6155.64"/>
    </edge>
    <edge id=":-13926_5" function="internal">
        <lane id=":-13926_5_0" index="0" speed="13.89" length="14.67" shape="6114.68,6158.90 6128.07,6164.89"/>
    </edge>
    <edge id=":-1466_0" function="internal">
        <lane id=":-1466_0_0" index="0" speed="13.89" length="16.06" shape="5848.21,6312.08 5845.80,6314.79 5842.62,6316.00 5838.66,6315.70 5833.93,6313.90"/>
    </edge>
    <edge id=":-1466_1" function="internal">
        <lane id=":-1466_1_0" index="0" speed="13.89" length="8.60" shape="5835.35,6311.04 5837.57,6311.78 5839.53,6311.66 5841.23,6310.68 5842.68,6308.85"/>
    </edge>
    <edge id=":-1474_0" function="internal">
        <lane id=":-1474_0_0" index="0" speed="13.89" length="7.66" shape="4646.04,5758.47 4646.92,5760.32 4648.19,5761.58 4649.84,5762.25 4651.88,5762.34"/>
    </edge>
    <edge id=":-1474_1" function="internal">
        <lane id=":-1474_1_0" index="0" speed="13.89" length="8.25" shape="4641.57,5767.15 4642.76,5765.55 4643.40,5763.74 4643.47,5761.71 4642.99,5759.45"/>
    </edge>
    <edge id=":-1474_2" function="internal">
        <lane id=":-1474_2_0" index="0" speed="13.89" length="11.71" shape="4641.57,5767.15 4643.96,5764.96 4646.18,5763.58 4648.67,5762.78 4651.88,5762.34"/>
    </edge>
    <edge id=":-14780_0" function="internal">
        <lane id=":-14780_0_0" index="0" speed="13.89" length="9.18" shape="6186.10,5974.68 6183.94,5973.38 6181.94,5973.17 6180.09,5974.05 6178.39,5976.01"/>
    </edge>
    <edge id=":-14780_1" function="internal">
        <lane id=":-14780_1_0" index="0" speed="13.89" length="15.25" shape="6186.10,5974.68 6183.14,5972.32 6180.06,5970.03 6176.90,5967.85 6173.72,5965.81"/>
    </edge>
    <edge id=":-14780_2" function="internal">
        <lane id=":-14780_2_0" index="0" speed="13.89" length="14.97" shape="6186.10,5974.68 6183.83,5971.86 6182.42,5968.19 6182.02,5964.31 6182.78,5960.87"/>
    </edge>
    <edge id=":-14780_3" function="internal">
        <lane id=":-14780_3_0" index="0" speed="13.89" length="11.17" shape="6185.68,5962.23 6184.83,5965.01 6184.95,5967.60 6186.05,5970.00 6188.13,5972.20"/>
    </edge>
    <edge id=":-14780_4" function="internal">
        <lane id=":-14780_4_0" index="0" speed="13.89" length="15.60" shape="6185.68,5962.23 6184.03,5965.70 6182.26,5969.24 6180.38,5972.72 6178.39,5976.01"/>
    </edge>
    <edge id=":-14780_5" function="internal">
        <lane id=":-14780_5_0" index="0" speed="13.89" length="4.23" shape="6185.68,5962.23 6183.45,5965.64 6183.32,5965.72"/>
    </edge>
    <edge id=":-14780_12" function="internal">
        <lane id=":-14780_12_0" index="0" speed="13.89" length="10.42" shape="6183.32,5965.72 6180.70,5967.38 6177.46,5967.43 6173.72,5965.81"/>
    </edge>
    <edge id=":-14780_6" function="internal">
        <lane id=":-14780_6_0" index="0" speed="13.89" length="9.04" shape="6175.40,5963.08 6177.71,5964.09 6179.71,5964.05 6181.40,5962.98 6182.78,5960.87"/>
    </edge>
    <edge id=":-14780_7" function="internal">
        <lane id=":-14780_7_0" index="0" speed="13.89" length="15.68" shape="6175.40,5963.08 6178.64,5965.17 6181.91,5967.44 6185.11,5969.81 6188.13,5972.20"/>
    </edge>
    <edge id=":-14780_8" function="internal">
        <lane id=":-14780_8_0" index="0" speed="13.89" length="15.20" shape="6175.40,5963.08 6178.63,5965.77 6180.20,5968.81 6180.12,5972.23 6178.39,5976.01"/>
    </edge>
    <edge id=":-14780_9" function="internal">
        <lane id=":-14780_9_0" index="0" speed="13.89" length="10.23" shape="6175.52,5974.55 6176.73,5971.96 6176.83,5969.64 6175.83,5967.59 6173.72,5965.81"/>
    </edge>
    <edge id=":-14780_10" function="internal">
        <lane id=":-14780_10_0" index="0" speed="13.89" length="15.50" shape="6175.52,5974.55 6177.50,5971.28 6179.38,5967.84 6181.14,5964.33 6182.78,5960.87"/>
    </edge>
    <edge id=":-14780_11" function="internal">
        <lane id=":-14780_11_0" index="0" speed="13.89" length="4.19" shape="6175.52,5974.55 6178.25,5971.37"/>
    </edge>
    <edge id=":-14780_13" function="internal">
        <lane id=":-14780_13_0" index="0" speed="13.89" length="10.85" shape="6178.25,5971.37 6178.32,5971.29 6181.36,5969.81 6184.63,5970.12 6188.13,5972.20"/>
    </edge>
    <edge id=":-14904_0" function="internal">
        <lane id=":-14904_0_0" index="0" speed="13.89" length="10.33" shape="6232.36,6112.85 6224.55,6106.10"/>
    </edge>
    <edge id=":-14904_1" function="internal">
        <lane id=":-14904_1_0" index="0" speed="13.89" length="3.79" shape="6232.26,6105.74 6230.30,6107.12 6228.96,6107.47"/>
    </edge>
    <edge id=":-14904_2" function="internal">
        <lane id=":-14904_2_0" index="0" speed="13.89" length="4.81" shape="6228.96,6107.47 6228.36,6107.63 6226.44,6107.29 6224.55,6106.10"/>
    </edge>
    <edge id=":-15004_0" function="internal">
        <lane id=":-15004_0_0" index="0" speed="13.89" length="9.03" shape="5478.42,6141.45 5476.05,6140.75 5474.02,6140.98 5472.34,6142.14 5471.02,6144.23"/>
    </edge>
    <edge id=":-15004_1" function="internal">
        <lane id=":-15004_1_0" index="0" speed="13.89" length="13.99" shape="5478.42,6141.45 5475.14,6139.41 5473.08,6136.84 5472.23,6133.75 5472.59,6130.14"/>
    </edge>
    <edge id=":-15004_2" function="internal">
        <lane id=":-15004_2_0" index="0" speed="13.89" length="9.49" shape="5475.70,6130.92 5475.46,6133.33 5476.06,6135.41 5477.49,6137.14 5479.75,6138.54"/>
    </edge>
    <edge id=":-15004_3" function="internal">
        <lane id=":-15004_3_0" index="0" speed="13.89" length="14.13" shape="5475.70,6130.92 5474.74,6134.40 5473.67,6137.68 5472.44,6140.91 5471.02,6144.23"/>
    </edge>
    <edge id=":-15004_4" function="internal">
        <lane id=":-15004_4_0" index="0" speed="13.89" length="13.57" shape="5468.10,6142.92 5469.50,6139.68 5470.66,6136.64 5471.67,6133.54 5472.59,6130.14"/>
    </edge>
    <edge id=":-15004_5" function="internal">
        <lane id=":-15004_5_0" index="0" speed="13.89" length="3.90" shape="5468.10,6142.92 5470.19,6139.63"/>
    </edge>
    <edge id=":-15004_6" function="internal">
        <lane id=":-15004_6_0" index="0" speed="13.89" length="10.32" shape="5470.19,6139.63 5472.82,6137.80 5476.01,6137.43 5479.75,6138.54"/>
    </edge>
    <edge id=":-15036_0" function="internal">
        <lane id=":-15036_0_0" index="0" speed="13.89" length="6.42" shape="6359.34,5909.65 6359.72,5911.32 6359.56,5912.81 6358.84,5914.13 6357.58,5915.29"/>
    </edge>
    <edge id=":-15036_1" function="internal">
        <lane id=":-15036_1_0" index="0" speed="13.89" length="2.14" shape="6355.76,5912.66 6356.18,5912.27 6356.42,5911.83 6356.47,5911.33 6356.34,5910.78"/>
    </edge>
    <edge id=":-15318_0" function="internal">
        <lane id=":-15318_0_0" index="0" speed="13.89" length="14.98" shape="4574.09,5889.62 4570.76,5891.40 4567.44,5893.20 4564.33,5895.24 4561.62,5897.77"/>
    </edge>
    <edge id=":-15318_1" function="internal">
        <lane id=":-15318_1_0" index="0" speed="13.89" length="3.80" shape="4574.09,5889.62 4570.94,5890.76 4570.49,5890.77"/>
    </edge>
    <edge id=":-15318_6" function="internal">
        <lane id=":-15318_6_0" index="0" speed="13.89" length="11.59" shape="4570.49,5890.77 4567.47,5890.82 4563.68,5889.77 4559.56,5887.64"/>
    </edge>
    <edge id=":-15318_2" function="internal">
        <lane id=":-15318_2_0" index="0" speed="13.89" length="11.95" shape="4561.26,5884.93 4564.57,5886.68 4567.54,5887.58 4570.19,5887.63 4572.51,5886.83"/>
    </edge>
    <edge id=":-15318_3" function="internal">
        <lane id=":-15318_3_0" index="0" speed="13.89" length="15.14" shape="4561.26,5884.93 4564.06,5887.47 4565.05,5890.46 4564.24,5893.89 4561.62,5897.77"/>
    </edge>
    <edge id=":-15318_4" function="internal">
        <lane id=":-15318_4_0" index="0" speed="13.89" length="8.60" shape="4559.84,5894.93 4561.31,5892.74 4561.76,5890.79 4561.17,5889.09 4559.56,5887.64"/>
    </edge>
    <edge id=":-15318_5" function="internal">
        <lane id=":-15318_5_0" index="0" speed="13.89" length="15.12" shape="4559.84,5894.93 4562.58,5892.41 4565.76,5890.38 4569.15,5888.61 4572.51,5886.83"/>
    </edge>
    <edge id=":-1542_0" function="internal">
        <lane id=":-1542_0_0" index="0" speed="13.89" length="9.26" shape="3158.18,6234.67 3155.84,6234.11 3153.74,6234.40 3151.89,6235.54 3150.28,6237.53"/>
    </edge>
    <edge id=":-1542_1" function="internal">
        <lane id=":-1542_1_0" index="0" speed="13.89" length="13.16" shape="3159.37,6231.69 3155.68,6230.18 3153.21,6229.00 3150.85,6227.61 3147.48,6225.48"/>
        <lane id=":-1542_1_1" index="1" speed="13.89" length="13.16" shape="3160.55,6228.72 3157.03,6227.27 3154.67,6226.14 3152.41,6224.81 3149.18,6222.77"/>
    </edge>
    <edge id=":-1542_3" function="internal">
        <lane id=":-1542_3_0" index="0" speed="13.89" length="11.70" shape="3154.30,6214.65 3157.09,6216.42 3159.04,6217.57 3161.07,6218.55 3164.12,6219.81"/>
        <lane id=":-1542_3_1" index="1" speed="13.89" length="11.70" shape="3152.60,6217.36 3155.53,6219.22 3157.58,6220.43 3159.72,6221.46 3162.93,6222.78"/>
        <lane id=":-1542_3_2" index="2" speed="13.89" length="11.70" shape="3150.89,6220.07 3153.97,6222.01 3156.13,6223.28 3158.38,6224.36 3161.74,6225.75"/>
    </edge>
    <edge id=":-1542_6" function="internal">
        <lane id=":-1542_6_0" index="0" speed="13.89" length="3.01" shape="3150.89,6220.07 3152.97,6222.24"/>
    </edge>
    <edge id=":-1542_10" function="internal">