<?xml version="1.0" encoding="UTF-8"?>

<!-- generated on 2023-01-25 12:06:07 by Eclipse SUMO polyconvert Version 1.15.0
<configuration xmlns:xsi="http://www.w3.org/2001/XMLSchema-instance" xsi:noNamespaceSchemaLocation="http://sumo.dlr.de/xsd/polyconvertConfiguration.xsd">

    <input>
        <net-file value="mini_lust.net.xml"/>
        <osm-files value="polyOSM/LuST.polygons.osm"/>
        <type-file value="polyOSM/polygonTypes.xml"/>
    </input>

    <output>
        <output-file value="mini_lust.poly.xml"/>
    </output>

    <pruning>
        <prune.in-net value="true"/>
    </pruning>

</configuration>
-->

<additional xmlns:xsi="http://www.w3.org/2001/XMLSchema-instance" xsi:noNamespaceSchemaLocation="http://sumo.dlr.de/xsd/additional_file.xsd">
    <location netOffset="-285448.66,-5492398.13" convBoundary="747.85,1789.71,12506.13,10303.90" origBoundary="6.030969,49.549099,6.216758,49.652578" projParameter="+proj=utm +zone=32 +ellps=WGS84 +datum=WGS84 +units=m +no_defs"/>

    <poly id="-146876" type="building" color="red" fill="1" layer="2.00" shape="4832.244632,6082.066786 4872.513163,6078.282470 4876.192399,6108.742361 4835.924094,6112.526648 4832.244632,6082.066786"/>
    <poly id="-146878" type="building" color="red" fill="1" layer="2.00" shape="4815.596287,6166.731185 4786.370739,6175.240446 4789.638315,6186.413247 4818.863806,6177.904001 4815.596287,6166.731185"/>
    <poly id="-146884" type="building" color="red" fill="1" layer="2.00" shape="4514.378121,5782.310515 4533.565758,5818.037254 4544.085371,5812.409568 4522.809023,5772.811674 4515.755539,5776.579891 4517.837514,5780.462403 4514.378121,5782.310515"/>
    <poly id="-146898" type="building" color="red" fill="1" layer="2.00" shape="5310.409554,6490.100374 5310.199771,6498.924949 5317.911296,6499.106490 5317.821474,6502.783488 5322.491813,6502.892971 5322.791440,6490.391399 5310.409554,6490.100374"/>
    <poly id="-146904" type="building" color="red" fill="1" layer="2.00" shape="4865.831616,6245.624790 4871.068369,6275.200668 4883.234045,6273.061171 4877.996929,6243.474167 4865.831616,6245.624790"/>
    <poly id="-146944" type="building" color="red" fill="1" layer="2.00" shape="5631.989699,5217.089668 5643.648634,5206.411137 5638.551432,5200.874241 5645.422225,5194.576559 5650.202285,5199.769436 5662.986529,5188.056945 5630.765622,5153.084014 5599.443936,5181.762060 5631.989699,5217.089668"/>
    <poly id="-146946" type="building" color="red" fill="1" layer="2.00" shape="4477.577534,5830.501371 4487.967816,5837.246282 4471.097109,5863.112825 4460.699625,5856.368227 4477.577534,5830.501371"/>
    <poly id="-146954" type="building" color="red" fill="1" layer="2.00" shape="3274.190249,6238.442111 3305.581949,6248.097145 3310.247214,6232.998509 3330.969986,6239.372787 3343.406052,6199.169397 3291.298402,6183.139648 3274.190249,6238.442111"/>
    <poly id="-146964" type="building" color="red" fill="1" layer="2.00" shape="5755.904969,6399.627436 5786.567355,6414.010954 5792.340757,6401.788858 5765.111238,6389.009893 5763.666303,6392.071051 5760.233390,6390.466465 5755.904969,6399.627436"/>
    <poly id="-146972" type="building" color="red" fill="1" layer="2.00" shape="5652.983742,5135.108839 5647.045971,5144.220383 5666.504170,5156.841548 5672.449181,5147.729748 5652.983742,5135.108839"/>
    <poly id="-146988" type="building" color="red" fill="1" layer="2.00" shape="5265.387657,6333.472368 5259.948331,6332.936151 5258.480479,6347.597823 5258.344494,6348.950028 5271.249685,6350.233795 5271.348385,6349.228118 5277.884480,6349.877927 5278.985498,6338.837147 5279.834965,6338.915732 5280.231914,6334.948598 5265.387657,6333.472368"/>
    <poly id="-147010" type="building" color="red" fill="1" layer="2.00" shape="6509.963757,5051.552366 6522.269633,5060.365017 6534.379008,5067.259428 6546.331038,5073.068977 6557.986737,5077.565220 6563.402221,5064.222447 6550.425955,5060.010517 6539.698853,5054.632722 6527.309735,5046.669232 6518.354890,5040.143837 6509.963757,5051.552366"/>
    <poly id="-147030" type="building" color="red" fill="1" layer="2.00" shape="6539.332015,4940.189087 6566.131239,4975.441448 6586.557731,4960.099206 6583.915609,4957.428539 6594.253848,4949.429840 6587.158803,4940.450944 6580.482844,4932.023734 6568.711242,4917.134812 6556.909199,4926.402956 6539.332015,4940.189087"/>
    <poly id="-147052" type="building" color="red" fill="1" layer="2.00" shape="5541.383776,5250.263544 5544.134312,5253.107668 5547.546425,5249.826073 5544.795890,5246.981948 5541.383776,5250.263544"/>
    <poly id="-147074" type="building" color="red" fill="1" layer="2.00" shape="6260.588437,6224.256724 6276.302076,6233.694957 6281.438116,6225.193669 6272.626393,6219.910044 6275.007267,6215.967133 6268.098538,6211.823900 6260.588437,6224.256724"/>
    <poly id="-147102" type="building" color="red" fill="1" layer="2.00" shape="5869.332588,5210.037944 5877.701000,5213.712821 5881.843307,5204.381084 5875.440195,5200.819951 5869.332588,5210.037944"/>
    <poly id="-147104" type="building" color="red" fill="1" layer="2.00" shape="6239.491067,5997.120056 6247.529287,6005.617011 6276.892141,5977.986135 6268.846709,5969.489415 6254.817897,5982.684271 6239.491067,5997.120056"/>
    <poly id="-147106" type="building" color="red" fill="1" layer="2.00" shape="6619.283944,5102.168727 6622.933598,5113.394534 6663.952550,5100.114192 6660.303401,5088.899475 6619.283944,5102.168727"/>
    <poly id="-147112" type="building" color="red" fill="1" layer="2.00" shape="5045.514090,6461.140262 5058.626080,6462.537985 5059.662917,6452.846571 5075.121450,6454.498904 5076.883906,6438.111458 5058.999331,6436.207616 5057.919278,6446.279184 5047.233674,6445.144074 5045.514090,6461.140262"/>
    <poly id="-147120" type="building" color="red" fill="1" layer="2.00" shape="6489.380912,5238.697123 6486.439045,5226.498083 6468.987810,5230.695253 6468.542650,5228.140870 6452.902392,5232.012696 6453.496787,5235.251530 6457.705191,5252.556042 6490.834410,5244.719388 6489.380912,5238.697123"/>
    <poly id="-147130" type="building" color="red" fill="1" layer="2.00" shape="4702.763963,5937.299411 4664.378808,5952.018575 4669.925151,5964.672848 4707.914806,5949.456927 4702.763963,5937.299411"/>
    <poly id="-147144" type="building" color="red" fill="1" layer="2.00" shape="5269.162174,6459.687953 5260.778184,6458.953533 5259.791973,6469.967633 5268.175946,6470.702050 5269.162174,6459.687953"/>
    <poly id="-147156" type="building" color="red" fill="1" layer="2.00" shape="3846.614752,6210.274805 3847.758597,6219.058212 3877.468574,6215.233914 3876.331570,6206.439106 3846.614752,6210.274805"/>
    <poly id="-147158" type="building" color="red" fill="1" layer="2.00" shape="5537.077755,6427.782272 5527.218634,6452.061945 5533.706440,6454.706203 5543.589905,6442.816973 5547.527341,6431.999826 5537.077755,6427.782272"/>
    <poly id="-147164" type="building" color="red" fill="1" layer="2.00" shape="5475.611213,6268.346119 5477.814800,6269.396739 5474.607042,6276.088058 5462.557650,6270.351483 5465.772622,6263.659880 5475.611213,6268.346119"/>
    <poly id="-147170" type="building" color="red" fill="1" layer="2.00" shape="6497.317733,4639.093737 6499.191122,4642.094362 6502.079746,4640.425314 6500.212733,4637.402181 6497.317733,4639.093737"/>
    <poly id="-147180" type="building" color="red" fill="1" layer="2.00" shape="6641.472917,5577.924466 6649.087852,5578.768443 6649.568546,5569.020911 6642.689231,5567.736902 6641.472917,5577.924466"/>
    <poly id="-147184" type="building" color="red" fill="1" layer="2.00" shape="6399.198413,5813.798589 6409.448600,5808.274045 6402.551482,5795.569864 6392.301276,5801.094421 6399.198413,5813.798589"/>
    <poly id="-147190" type="building" color="red" fill="1" layer="2.00" shape="5414.357962,5526.624283 5416.762628,5531.574393 5427.978974,5526.155542 5429.880585,5530.067507 5447.823797,5521.395288 5443.517554,5512.533194 5414.357962,5526.624283"/>
    <poly id="-147232" type="building" color="red" fill="1" layer="2.00" shape="5431.309107,4794.484031 5446.418822,4801.060302 5444.609539,4805.193071 5449.150435,4807.166764 5446.031031,4814.299903 5463.230872,4821.786513 5467.482010,4812.094028 5477.808027,4816.594698 5472.200441,4829.400639 5461.749464,4824.849130 5455.603264,4838.889193 5438.683176,4831.525425 5432.816567,4844.931372 5422.813627,4840.551935 5418.868177,4861.943440 5411.417189,4860.694045 5416.038412,4839.187467 5414.279361,4838.420284 5414.853713,4835.481621 5398.876431,4830.241270 5402.535737,4818.712484 5425.925336,4826.639758 5433.474628,4809.384200 5426.181214,4806.214031 5431.309107,4794.484031"/>
    <poly id="-147246" type="building" color="red" fill="1" layer="2.00" shape="4824.546905,6020.337840 4824.907730,6028.183091 4837.683514,6027.589579 4837.323137,6019.755443 4824.546905,6020.337840"/>
    <poly id="-147250" type="building" color="red" fill="1" layer="2.00" shape="5289.785782,5083.979429 5286.575910,5086.875019 5288.782936,5089.317047 5291.992808,5086.421458 5289.785782,5083.979429"/>
    <poly id="-147258" type="building" color="red" fill="1" layer="2.00" shape="6570.260547,5451.444492 6676.766405,5455.772199 6677.857938,5434.001300 6571.163800,5429.491513 6570.260547,5451.444492"/>
    <poly id="-147266" type="building" color="red" fill="1" layer="2.00" shape="5632.381622,6042.213395 5679.239186,6039.887940 5679.032157,6033.940350 5725.457741,6032.233033 5725.471293,6043.687203 5688.070885,6044.913860 5688.719645,6057.456795 5688.826083,6060.224538 5703.700600,6059.652535 5704.126660,6072.237430 5654.763198,6073.545884 5642.537809,6095.589706 5632.240456,6090.453265 5638.675435,6077.559916 5634.219707,6075.326825 5626.368922,6086.961082 5620.749370,6083.436947 5615.819542,6078.283293 5611.844256,6071.801622 5609.865772,6065.131815 5608.774053,6058.004882 5632.943188,6055.683632 5632.381622,6042.213395"/>
    <poly id="-147286" type="building" color="red" fill="1" layer="2.00" shape="6240.391558,5051.751945 6242.462959,5066.143831 6246.816882,5065.520489 6248.029512,5073.934143 6241.243201,5074.906780 6240.779582,5071.685210 6234.000494,5072.657578 6231.179615,5053.062498 6240.391558,5051.751945"/>
    <poly id="-147300" type="building" color="red" fill="1" layer="2.00" shape="4463.857494,6116.832980 4471.571471,6117.247039 4472.082191,6107.631457 4464.375425,6107.217118 4463.857494,6116.832980"/>
    <poly id="-147318" type="building" color="red" fill="1" layer="2.00" shape="4915.907530,6450.405871 4914.306978,6441.740172 4929.062010,6439.033250 4930.662110,6447.687836 4915.907530,6450.405871"/>
    <poly id="-147322" type="building" color="red" fill="1" layer="2.00" shape="6519.259639,5607.058771 6554.794680,5606.555100 6554.392067,5618.526013 6518.648014,5619.048828 6519.259639,5607.058771"/>
    <poly id="-147342" type="building" color="red" fill="1" layer="2.00" shape="5612.992688,5897.788396 5644.209170,5896.587633 5644.810707,5912.227045 5613.594314,5913.427807 5612.992688,5897.788396"/>
    <poly id="-147352" type="building" color="red" fill="1" layer="2.00" shape="4608.752597,6198.915568 4598.596417,6170.320436 4595.443422,6142.846080 4606.884748,6141.613412 4609.362010,6156.100577 4611.656550,6154.631510 4615.406520,6166.108367 4610.627640,6166.382155 4612.280117,6173.008611 4621.668177,6195.210287 4608.752597,6198.915568"/>
    <poly id="-147388" type="building" color="red" fill="1" layer="2.00" shape="4649.703014,6470.079804 4664.720996,6473.618185 4666.089377,6467.843438 4651.071380,6464.305053 4649.703014,6470.079804"/>
    <poly id="-147396" type="building" color="red" fill="1" layer="2.00" shape="3106.182720,6161.005477 3113.706127,6148.155423 3086.685422,6132.420046 3079.162483,6145.281254 3106.182720,6161.005477"/>
    <poly id="-147398" type="building" color="red" fill="1" layer="2.00" shape="5138.938320,5970.302415 5130.333590,5950.541028 5115.478233,5957.436788 5114.551061,5955.157096 5096.551700,5962.886591 5101.616985,5986.357781 5138.938320,5970.302415"/>
    <poly id="-147426" type="building" color="red" fill="1" layer="2.00" shape="5382.507463,6336.106780 5385.391431,6340.359414 5386.780695,6339.426484 5387.931049,6341.118757 5397.873855,6334.424017 5393.846764,6328.478824 5382.507463,6336.106780"/>
    <poly id="-147432" type="building" color="red" fill="1" layer="2.00" shape="4891.496811,6195.497330 4905.769140,6194.512219 4903.060733,6155.087102 4889.675571,6156.004569 4890.266050,6164.553401 4892.553495,6164.398303 4893.034185,6171.415160 4889.859475,6171.637906 4891.496811,6195.497330"/>
    <poly id="-147498" type="building" color="red" fill="1" layer="2.00" shape="6334.921728,6371.017573 6332.519883,6350.827537 6344.698144,6349.392150 6347.099517,6369.571074 6334.921728,6371.017573"/>
    <poly id="-147512" type="building" color="red" fill="1" layer="2.00" shape="5788.162135,6380.409330 5799.418821,6386.054608 5806.148571,6372.738242 5794.898663,6367.081557 5788.162135,6380.409330"/>
    <poly id="-147520" type="building" color="red" fill="1" layer="2.00" shape="5470.478939,6352.077544 5474.599848,6343.926179 5463.061347,6338.114285 5458.940450,6346.265659 5470.478939,6352.077544"/>
    <poly id="-147534" type="building" color="red" fill="1" layer="2.00" shape="3882.275758,6205.618520 3883.410808,6214.736236 3918.187231,6210.403936 3917.045015,6201.286495 3882.275758,6205.618520"/>
    <poly id="-147560" type="building" color="red" fill="1" layer="2.00" shape="5219.338392,6522.798210 5218.014628,6530.307644 5222.224540,6531.047046 5221.833483,6533.288510 5230.071426,6534.740936 5231.793490,6524.989764 5219.338392,6522.798210"/>
    <poly id="-147580" type="building" color="red" fill="1" layer="2.00" shape="5101.087969,6371.276664 5109.893744,6372.250617 5111.511234,6357.727822 5102.712660,6356.753588 5101.087969,6371.276664"/>
    <poly id="-147594" type="building" color="red" fill="1" layer="2.00" shape="5656.382772,6427.867044 5661.599761,6435.792640 5654.036925,6440.981589 5644.173804,6436.585429 5645.477214,6430.223508 5650.028727,6430.816517 5655.432826,6426.868320 5656.382772,6427.867044"/>
    <poly id="-147598" type="building" color="red" fill="1" layer="2.00" shape="5344.350171,6395.384688 5349.902060,6396.027968 5351.363517,6383.448251 5345.811617,6382.804970 5344.350171,6395.384688"/>
    <poly id="-147620" type="building" color="red" fill="1" layer="2.00" shape="3214.698751,6421.038211 3254.424530,6388.500300 3244.887363,6376.926522 3205.161545,6409.464502 3214.698751,6421.038211"/>
    <poly id="-147626" type="building" color="red" fill="1" layer="2.00" shape="6459.793350,6023.984912 6472.814792,6019.422926 6464.493549,5995.786171 6451.479278,6000.347900 6459.793350,6023.984912"/>
    <poly id="-147686" type="building" color="red" fill="1" layer="2.00" shape="5501.039981,6307.041316 5493.969996,6307.369134 5494.283667,6314.013938 5501.353643,6313.686121 5501.039981,6307.041316"/>
    <poly id="-147688" type="building" color="red" fill="1" layer="2.00" shape="6388.702132,4869.684687 6366.195404,4887.578627 6373.142104,4896.262380 6395.649240,4878.379584 6388.702132,4869.684687"/>
    <poly id="-147690" type="building" color="red" fill="1" layer="2.00" shape="5641.108773,6248.585602 5647.033731,6236.168274 5683.224426,6253.934229 5677.119286,6266.558818 5641.108773,6248.585602"/>
    <poly id="-147720" type="building" color="red" fill="1" layer="2.00" shape="6326.471353,6316.283729 6329.247466,6327.932460 6301.768058,6334.451858 6298.991887,6322.803140 6326.471353,6316.283729"/>
    <poly id="-147730" type="building" color="red" fill="1" layer="2.00" shape="4226.525771,5860.185110 4239.275601,5855.171793 4240.358504,5857.912878 4254.363073,5852.416863 4257.732603,5860.958279 4284.358305,5850.487479 4268.171156,5809.513638 4239.528277,5820.775062 4224.854001,5826.541949 4214.797957,5830.493621 4226.525771,5860.185110"/>
    <poly id="-147750" type="building" color="red" fill="1" layer="2.00" shape="4001.653883,6277.427726 3996.432814,6234.571188 3954.281464,6240.324444 3951.260965,6241.165161 3950.010101,6243.050465 3949.948485,6245.379464 3951.120012,6247.604984 3970.421855,6283.225100 4001.653883,6277.427726"/>
    <poly id="-147764" type="building" color="red" fill="1" layer="2.00" shape="6368.463753,5842.085141 6353.962329,5800.685313 6373.825203,5793.768113 6367.025510,5774.358884 6374.529423,5771.744736 6381.531855,5791.725055 6383.873794,5790.911733 6379.560462,5778.609459 6384.001274,5777.058922 6390.946705,5796.874458 6386.092002,5798.574434 6397.764710,5831.867489 6368.463753,5842.085141"/>
    <poly id="-147766" type="building" color="red" fill="1" layer="2.00" shape="5789.237106,5177.626939 5793.469261,5180.993103 5801.824072,5170.564354 5797.591916,5167.198183 5789.237106,5177.626939"/>
    <poly id="-147786" type="building" color="red" fill="1" layer="2.00" shape="4493.023501,5917.821935 4517.421297,5935.802857 4522.592247,5928.823490 4498.194441,5910.842545 4493.023501,5917.821935"/>
    <poly id="-147794" type="building" color="red" fill="1" layer="2.00" shape="5538.559709,5616.999915 5539.168635,5623.611081 5563.863309,5621.358487 5563.253985,5614.736204 5538.559709,5616.999915"/>
    <poly id="-147814" type="building" color="red" fill="1" layer="2.00" shape="5922.863228,5286.138465 5917.201374,5297.164908 5927.482435,5302.413905 5931.084288,5304.257048 5936.746161,5293.230619 5922.863228,5286.138465"/>
    <poly id="-147838" type="building" color="red" fill="1" layer="2.00" shape="6346.494528,5012.107586 6340.149383,5004.013064 6316.887297,5022.192239 6323.239259,5030.275342 6346.494528,5012.107586"/>
    <poly id="-147866" type="building" color="red" fill="1" layer="2.00" shape="5207.351454,5936.295268 5189.845552,5944.818055 5182.400455,5929.609387 5199.906398,5921.086578 5207.351454,5936.295268"/>
    <poly id="-147868" type="building" color="red" fill="1" layer="2.00" shape="2730.434907,5858.399942 2748.572508,5859.095300 2749.162214,5843.787701 2731.024563,5843.092339 2730.434907,5858.399942"/>
    <poly id="-147954" type="building" color="red" fill="1" layer="2.00" shape="5662.357365,4859.378157 5669.107984,4845.047870 5727.639922,4872.442196 5720.889196,4886.772408 5662.357365,4859.378157"/>
    <poly id="-147964" type="building" color="red" fill="1" layer="2.00" shape="4679.567443,6354.809496 4701.944719,6359.321521 4735.628388,6361.181520 4736.141818,6349.940605 4718.384129,6349.836338 4718.682741,6345.394254 4702.824894,6345.216628 4696.434639,6344.038662 4695.616321,6347.387627 4682.683327,6345.204593 4679.567443,6354.809496"/>
    <poly id="-147996" type="building" color="red" fill="1" layer="2.00" shape="6200.726958,4753.345282 6227.864931,4749.788922 6225.967306,4735.401506 6225.243306,4729.919038 6214.203920,4731.143805 6207.315610,4732.298475 6208.031550,4737.758989 6198.901520,4738.955102 6190.346154,4740.040139 6193.999202,4768.876073 6198.203846,4800.774359 6212.164810,4798.936590 6207.953022,4767.038573 6202.552817,4767.746578 6200.726958,4753.345282"/>
    <poly id="-148014" type="building" color="red" fill="1" layer="2.00" shape="5536.014077,5285.791582 5534.066252,5287.636493 5535.755257,5289.408268 5537.703083,5287.563357 5536.014077,5285.791582"/>
    <poly id="-148040" type="building" color="red" fill="1" layer="2.00" shape="4884.593308,6104.192144 4899.826756,6103.359173 4899.211065,6092.095112 4883.977586,6092.928084 4884.593308,6104.192144"/>
    <poly id="-148074" type="building" color="red" fill="1" layer="2.00" shape="4479.575430,6180.720353 4487.151515,6185.614847 4489.399725,6187.064112 4491.523437,6183.798203 4496.390943,6186.938421 4504.876600,6176.068171 4504.703781,6171.599771 4491.183019,6162.838583 4479.575430,6180.720353"/>
    <poly id="-148098" type="building" color="red" fill="1" layer="2.00" shape="3153.622789,6295.383692 3172.662466,6294.575794 3172.885748,6299.754718 3251.723609,6296.397290 3251.903263,6300.642804 3273.998198,6299.705255 3274.803537,6318.732262 3243.442156,6320.074889 3243.262494,6315.829375 3173.944276,6318.771879 3174.460927,6330.930420 3155.168541,6331.748156 3153.622789,6295.383692"/>
    <poly id="-148118" type="building" color="red" fill="1" layer="2.00" shape="3183.479469,6518.023752 3175.721933,6508.863315 3169.017889,6514.501136 3176.783086,6523.672398 3183.479469,6518.023752"/>
    <poly id="-148126" type="building" color="red" fill="1" layer="2.00" shape="6005.906315,5456.461500 6011.384150,5467.594524 6058.989677,5445.985931 6048.043630,5421.704575 6024.421111,5432.307132 6019.533648,5421.474255 5994.269093,5432.841286 6005.906315,5456.461500"/>
    <poly id="-148128" type="building" color="red" fill="1" layer="2.00" shape="3582.502139,6304.224694 3555.298777,6307.563629 3556.460051,6316.969714 3583.662934,6313.619668 3582.502139,6304.224694"/>
    <poly id="-148172" type="building" color="red" fill="1" layer="2.00" shape="5505.165147,5014.748531 5511.989482,5003.855012 5494.344409,4992.867751 5487.520092,5003.761293 5505.165147,5014.748531"/>
    <poly id="-148174" type="building" color="red" fill="1" layer="2.00" shape="3052.697826,6368.433296 3081.807924,6363.347726 3077.622696,6339.476206 3048.512471,6344.561795 3052.697826,6368.433296"/>
    <poly id="-148208" type="building" color="red" fill="1" layer="2.00" shape="6509.697404,5754.788451 6517.860068,5757.848733 6521.301735,5748.722460 6513.139061,5745.662172 6509.697404,5754.788451"/>
    <poly id="-148222" type="building" color="red" fill="1" layer="2.00" shape="6403.068749,5265.803205 6400.587995,5255.634776 6398.852949,5248.499008 6453.496787,5235.251530 6457.705191,5252.556042 6403.068749,5265.803205"/>
    <poly id="-148228" type="building" color="red" fill="1" layer="2.00" shape="6293.015451,5250.217646 6294.450031,5256.118150 6297.740828,5255.324090 6300.208179,5265.515263 6322.225434,5260.196318 6319.672238,5249.652211 6304.422689,5253.331391 6303.081232,5247.783532 6293.015451,5250.217646"/>
    <poly id="-148264" type="building" color="red" fill="1" layer="2.00" shape="6327.739380,6464.633060 6333.084645,6481.214851 6306.414462,6489.762633 6301.069546,6473.191981 6327.739380,6464.633060"/>
    <poly id="-148270" type="building" color="red" fill="1" layer="2.00" shape="4904.748802,6241.172350 4906.978929,6253.776721 4915.990095,6252.193222 4913.759560,6239.577732 4904.748802,6241.172350"/>
    <poly id="-148272" type="building" color="red" fill="1" layer="2.00" shape="4565.278554,6100.955026 4576.233845,6097.815250 4571.948992,6082.986074 4560.994101,6086.136974 4565.278554,6100.955026"/>
    <poly id="-148290" type="building" color="red" fill="1" layer="2.00" shape="3856.597548,6252.012780 3858.129837,6263.909236 3874.766589,6261.772119 3873.241992,6249.886494 3856.597548,6252.012780"/>
    <poly id="-148294" type="building" color="red" fill="1" layer="2.00" shape="6273.291436,5124.917599 6288.195096,5114.093887 6280.665200,5103.785103 6274.365046,5095.165739 6259.468580,5105.989211 6273.291436,5124.917599"/>
    <poly id="-148332" type="building" color="red" fill="1" layer="2.00" shape="4952.945287,6140.103865 4986.737121,6141.738683 4987.350154,6129.314014 4953.558244,6127.679190 4952.945287,6140.103865"/>
    <poly id="-148334" type="building" color="red" fill="1" layer="2.00" shape="5503.035969,6279.958485 5506.385718,6273.384171 5495.635045,6267.931492 5492.278081,6274.506091 5503.035969,6279.958485"/>
    <poly id="-148358" type="building" color="red" fill="1" layer="2.00" shape="4420.311651,6136.685143 4425.278377,6134.533735 4424.843289,6132.825099 4428.721162,6131.328087 4425.299049,6122.165220 4423.635849,6117.698822 4421.852674,6112.936502 4415.443516,6115.767115 4418.888355,6125.329852 4416.219655,6126.290275 4420.311651,6136.685143"/>
    <poly id="-148376" type="building" color="red" fill="1" layer="2.00" shape="6184.389892,6049.905692 6196.061721,6060.333685 6214.476443,6039.834923 6202.812262,6029.417730 6184.389892,6049.905692"/>
    <poly id="-148392" type="building" color="red" fill="1" layer="2.00" shape="5531.628870,6534.073460 5538.545092,6536.712676 5542.635110,6526.069004 5535.711654,6523.430061 5531.628870,6534.073460"/>
    <poly id="-148394" type="building" color="red" fill="1" layer="2.00" shape="4723.695852,6116.503022 4725.917432,6121.571305 4733.060925,6118.456666 4730.839351,6113.388379 4723.695852,6116.503022"/>
    <poly id="-148396" type="building" color="red" fill="1" layer="2.00" shape="6286.417879,5988.296244 6293.466571,5995.328415 6306.002640,5982.825408 6298.953951,5975.793221 6286.417879,5988.296244"/>
    <poly id="-148400" type="building" color="red" fill="1" layer="2.00" shape="6618.931553,6272.907228 6625.681053,6270.823200 6621.967721,6258.865158 6615.210983,6260.949468 6618.931553,6272.907228"/>
    <poly id="-148420" type="building" color="red" fill="1" layer="2.00" shape="4713.530808,6098.338716 4713.142040,6097.452046 4710.404489,6091.201445 4719.405175,6087.280323 4722.531484,6094.417599 4715.387963,6097.532252 4713.530808,6098.338716"/>
    <poly id="-148440" type="building" color="red" fill="1" layer="2.00" shape="5397.957645,4837.579158 5395.830636,4863.910035 5406.261532,4864.744138 5408.395816,4838.412988 5397.957645,4837.579158"/>
    <poly id="-148496" type="building" color="red" fill="1" layer="2.00" shape="5391.225739,6402.618172 5393.117227,6388.240803 5408.054438,6390.070011 5406.333285,6404.362889 5391.225739,6402.618172"/>
    <poly id="-148516" type="building" color="red" fill="1" layer="2.00" shape="3753.287988,6361.710320 3730.270768,6403.547849 3745.076090,6411.645050 3768.093378,6369.807585 3753.287988,6361.710320"/>
    <poly id="-148562" type="building" color="red" fill="1" layer="2.00" shape="4872.027302,6283.735275 4878.304881,6311.601174 4891.143725,6308.723252 4884.788322,6280.526387 4872.027302,6283.735275"/>
    <poly id="-148604" type="building" color="red" fill="1" layer="2.00" shape="5339.747268,6433.833582 5339.078222,6443.132254 5346.746164,6443.682873 5347.408483,6434.584837 5347.505797,6433.167333 5347.741086,6429.885482 5340.073126,6429.334861 5339.747268,6433.833582"/>
    <poly id="-148616" type="building" color="red" fill="1" layer="2.00" shape="4259.936806,5900.135723 4282.736852,5888.221138 4276.605230,5876.547212 4253.797490,5888.450986 4259.936806,5900.135723"/>
    <poly id="-148664" type="building" color="red" fill="1" layer="2.00" shape="4162.909513,5939.293253 4155.339736,5925.426477 4130.606556,5939.164255 4137.940037,5952.906569 4162.909513,5939.293253"/>
    <poly id="-148702" type="building" color="red" fill="1" layer="2.00" shape="6622.961881,5598.636747 6617.923243,5598.183983 6618.612646,5590.677065 6623.644067,5591.130106 6622.961881,5598.636747"/>
    <poly id="-148710" type="building" color="red" fill="1" layer="2.00" shape="6179.048767,5897.364074 6182.333566,5889.635045 6191.666293,5893.585016 6188.381058,5901.302924 6179.048767,5897.364074"/>
    <poly id="-148728" type="building" color="red" fill="1" layer="2.00" shape="6155.482534,5854.698398 6158.828488,5846.677581 6160.100429,5843.623197 6143.161939,5836.614434 6137.921702,5849.194059 6139.928939,5850.029846 6140.551308,5848.525437 6155.482534,5854.698398"/>
    <poly id="-148796" type="building" color="red" fill="1" layer="2.00" shape="5948.061831,5497.265415 5950.486261,5503.873672 5981.098155,5492.712967 5985.608917,5505.040808 6014.636566,5494.453187 6007.701502,5475.517042 5948.061831,5497.265415"/>
    <poly id="-148804" type="building" color="red" fill="1" layer="2.00" shape="2984.863387,6380.293064 3013.554262,6375.034204 3006.570495,6337.089250 2977.879420,6342.348141 2984.863387,6380.293064"/>
    <poly id="-148816" type="building" color="red" fill="1" layer="2.00" shape="3268.198211,6485.905591 3260.612200,6491.377226 3267.898117,6501.435570 3275.484551,6495.975061 3268.198211,6485.905591"/>
    <poly id="-148832" type="building" color="red" fill="1" layer="2.00" shape="6617.071425,4848.105031 6618.965986,4852.607662 6627.961052,4848.834851 6632.959055,4860.688104 6641.733521,4857.012812 6634.833337,4840.646077 6617.071425,4848.105031"/>
    <poly id="-148858" type="building" color="red" fill="1" layer="2.00" shape="6642.123947,4818.994190 6652.122067,4843.891736 6660.667480,4840.470140 6653.901216,4823.630726 6677.892249,4814.052315 6674.653235,4805.994430 6642.123947,4818.994190"/>
    <poly id="-148864" type="building" color="red" fill="1" layer="2.00" shape="4605.135970,6229.347095 4618.570498,6228.026253 4617.392997,6216.093715 4603.951215,6217.414838 4605.135970,6229.347095"/>
    <poly id="-148876" type="building" color="red" fill="1" layer="2.00" shape="5583.017134,6254.093340 5628.505754,6274.339806 5633.508831,6263.160167 5602.572091,6249.389110 5607.894951,6237.495835 5593.350205,6231.020089 5583.017134,6254.093340"/>
    <poly id="-148926" type="building" color="red" fill="1" layer="2.00" shape="6059.183928,5451.989652 6063.320792,5460.235392 6087.317479,5448.260560 6083.180646,5440.014803 6059.183928,5451.989652"/>
    <poly id="-148930" type="building" color="red" fill="1" layer="2.00" shape="5189.662237,6338.873616 5197.420956,6339.709967 5198.985191,6325.300588 5191.219228,6324.464513 5189.662237,6338.873616"/>
    <poly id="-148942" type="building" color="red" fill="1" layer="2.00" shape="5168.859629,6365.056481 5160.176234,6364.066583 5158.521215,6378.557406 5167.204158,6379.536186 5168.859629,6365.056481"/>
    <poly id="-148978" type="building" color="red" fill="1" layer="2.00" shape="4781.744881,5921.435515 4777.971816,5914.412235 4766.374274,5920.604282 4770.140126,5927.627833 4781.744881,5921.435515"/>