<?xml version="1.0" encoding="UTF-8"?>

<!-- generated on 2022-12-19 23:18:53 by Eclipse SUMO polyconvert Version 1.15.0
<configuration xmlns:xsi="http://www.w3.org/2001/XMLSchema-instance" xsi:noNamespaceSchemaLocation="http://sumo.dlr.de/xsd/polyconvertConfiguration.xsd">

    <input>
        <net-file value="IRTSmap.net.xml"/>
        <osm-files value="map.osm"/>
    </input>

    <output>
        <output-file value="IRTSmap.poly.xml"/>
    </output>

</configuration>
-->

<additional xmlns:xsi="http://www.w3.org/2001/XMLSchema-instance" xsi:noNamespaceSchemaLocation="http://sumo.dlr.de/xsd/additional_file.xsd">
    <location netOffset="-439515.70,-5395284.83" convBoundary="-2828.11,-2598.11,4433.24,1821.92" origBoundary="2.139431,48.684351,2.237991,48.724248" projParameter="+proj=utm +zone=31 +ellps=WGS84 +datum=WGS84 +units=m +no_defs"/>

    <poly id="1014597132" type="building" color="255,230,230" fill="1" layer="-1.00" shape="1897.656285,518.300338 1907.093286,516.700972 1905.526392,507.556893 1896.096732,509.156185 1897.656285,518.300338"/>
    <poly id="1014597133" type="landuse" color="194,194,130" fill="1" layer="-3.00" shape="1876.838785,1103.563676 1914.903693,1096.895969 1867.397072,996.938639 1858.461999,998.621777 1876.838785,1103.563676"/>
    <poly id="1014637851" type="building" color="255,230,230" fill="1" layer="-1.00" shape="2260.615443,667.457837 2261.832446,685.477031 2205.608811,688.684592 2204.898824,676.996848 2204.575526,670.663497 2260.615443,667.457837"/>
    <poly id="1014637852" type="building" color="255,230,230" fill="1" layer="-1.00" shape="2257.845455,623.151867 2259.089474,640.937321 2203.211125,644.141313 2202.743714,635.975149 2202.187494,626.342460 2257.845455,623.151867"/>
    <poly id="1014637853" type="building" color="255,230,230" fill="1" layer="-1.00" shape="2257.469224,616.674543 2201.936136,619.852724 2200.752367,599.387449 2256.467829,596.040610 2257.469224,616.674543"/>
    <poly id="1014637854" type="building" color="255,230,230" fill="1" layer="-1.00" shape="2200.752367,599.387449 2199.729072,581.621945 2255.262538,578.443745 2256.467829,596.040610 2200.752367,599.387449"/>
    <poly id="1014637855" type="building" color="255,230,230" fill="1" layer="-1.00" shape="2253.719742,551.723301 2197.737635,554.939525 2196.723184,537.318453 2252.926035,534.088813 2253.719742,551.723301"/>
    <poly id="1014637856" type="building" color="255,230,230" fill="1" layer="-1.00" shape="2250.218234,489.404229 2251.382184,507.268330 2195.076077,510.499053 2194.044244,492.622471 2250.218234,489.404229"/>
    <poly id="1026143470" type="landuse" color="194,194,130" fill="1" layer="-3.00" shape="2141.246502,716.434858 2151.729084,715.658799 2145.904595,645.126193 2166.615111,643.821340 2161.999055,584.070805 2148.615851,584.676901 2138.716699,558.110101 2122.151917,560.516965 2141.246502,716.434858"/>
    <poly id="1026201964" type="landuse" color="194,194,130" fill="1" layer="-3.00" shape="1967.603118,578.636062 1968.278352,586.944564 1964.848651,593.861797 1955.524233,598.483729 1954.338504,593.426731 1904.552259,602.362101 1903.237939,599.085183 1892.698366,600.762779 1891.533765,592.804024 1967.603118,578.636062"/>
    <poly id="1026201967" type="landuse" color="194,194,130" fill="1" layer="-3.00" shape="1940.578250,575.527382 1939.387723,568.602774 1963.071478,564.553582 1964.261977,571.478195 1940.578250,575.527382"/>
    <poly id="1026201968" type="landuse" color="194,194,130" fill="1" layer="-3.00" shape="1869.246883,588.301032 1868.012249,581.388015 1910.023268,573.945382 1911.250495,580.858484 1869.246883,588.301032"/>
    <poly id="1026201969" type="landuse" color="194,194,130" fill="1" layer="-3.00" shape="1822.924256,597.089761 1821.674854,590.176908 1857.876503,583.695127 1859.118505,590.608064 1822.924256,597.089761"/>
    <poly id="1026201970" type="landuse" color="194,194,130" fill="1" layer="-3.00" shape="1796.670644,601.600004 1795.377075,594.687618 1812.573471,591.494984 1813.866904,598.396257 1796.670644,601.600004"/>
    <poly id="1026201971" type="landuse" color="194,194,130" fill="1" layer="-3.00" shape="1971.994740,555.322277 1956.769826,457.695633 1990.646801,451.839306 1991.277347,550.396406 1971.994740,555.322277"/>
    <poly id="1057001672" type="leisure" color="207,245,201" fill="1" layer="-2.00" shape="2593.525713,845.875090 2601.042433,835.025109 2594.329710,830.403011 2586.820351,841.252925 2593.525713,845.875090"/>
    <poly id="1057001672#1" type="sport" color="79,230,125" fill="1" layer="-2.00" shape="2593.525713,845.875090 2601.042433,835.025109 2594.329710,830.403011 2586.820351,841.252925 2593.525713,845.875090"/>
    <poly id="1062687874" type="landuse" color="194,194,130" fill="1" layer="-3.00" shape="231.017698,840.987908 265.760356,866.095170 303.680641,887.766708 344.312861,907.163758 421.815634,927.944835 509.036042,939.129033 596.284778,928.202369 1066.138155,845.151566 1092.219620,840.517405 1110.609879,843.880147 1513.750833,772.635245 1573.354242,768.418041 1645.922733,788.989881 1720.026940,824.888096 1777.109821,852.605403 1824.940532,880.597921 1879.864226,944.669366 1981.821604,1153.161233 2010.461586,1193.617630 2045.860663,1226.244023 2074.919211,1244.818021 2110.695592,1261.465684 2141.315341,1269.640445 2182.531200,1274.625771 2218.709443,1271.948510 2317.130520,1254.051048 2402.099073,1231.992353 2446.728320,1224.915633 2631.711515,1207.940567 2841.479730,1181.812061 2967.696709,1186.997282 3422.535339,1241.192830 3617.404216,1267.517125 3959.018177,1388.439974 3982.627824,1420.330108 3952.328523,1420.946778 3654.235565,1313.268141 3567.197191,1286.803118 3207.533034,1242.428723 2970.477234,1209.225031 2589.563577,1234.511697 2467.714911,1246.232163 2305.976383,1280.047235 2281.446428,1290.885215 2211.152148,1302.832375 2168.790350,1302.928134 2130.781593,1297.209163 2102.480702,1289.188191 2073.060192,1277.499280 2039.565173,1258.126635 2012.195829,1237.889881 1980.662361,1204.923206 1958.528423,1174.660092 1940.264372,1138.131111 1921.656717,1099.715877 1872.020140,995.845316 1852.499457,960.252459 1829.492439,929.665452 1803.515409,903.511966 1739.128954,868.144545 1633.041831,817.084433 1603.965082,806.939591 1564.254537,797.873789 1509.050249,795.052202 1447.698063,802.234527 1083.974651,872.633033 688.189429,944.775586 591.876470,960.411214 511.142532,969.634070 441.659647,964.007456 370.504652,948.583218 300.441454,921.141680 232.158215,880.041185 195.700803,850.772528 156.018814,811.744611 186.546804,799.231953 231.017698,840.987908"/>
    <poly id="1062901569" type="landuse" color="194,194,130" fill="1" layer="-3.00" shape="1672.264545,880.673886 1653.193876,849.568271 1633.432262,795.402073 1759.743146,772.010711 1776.563203,867.852607 1678.506126,888.001279 1672.264545,880.673886"/>
    <poly id="1063329861" type="building" color="255,230,230" fill="1" layer="-1.00" shape="1654.608432,838.547545 1671.521447,801.394824 1737.219675,789.111167 1744.222922,826.313296 1751.496382,829.616705 1731.562473,873.382122 1654.608432,838.547545"/>
    <poly id="1063399735" type="forest" color="140,196,107" fill="0" layer="-3.00" shape="1102.366225,391.813767 1078.999412,329.249744 1132.268005,309.286561 1108.967683,239.795784 1092.305526,188.589091 1086.594918,173.185717 1036.139057,201.101554 1011.268078,206.378989 1002.805798,180.588175 1007.581835,176.524271 1027.079543,159.908777 1035.088813,153.375989 1052.121388,139.488160 1057.956982,136.813825 1097.283807,119.532752 1100.321401,124.992425 1121.570818,116.040618 1109.012984,78.642313 1082.479833,99.323032 1069.279239,82.542658 1104.230802,63.373617 1055.528098,64.500801 1049.871402,66.706324 1038.589322,54.630447 1013.633871,83.232362 970.503002,102.577684 973.907504,125.965233 936.516693,135.678134 898.987387,123.336484 869.178489,170.078102 886.256579,186.138675 887.285407,203.336977 874.297595,223.230024 820.758063,236.394886 788.314403,273.259672 782.284504,298.437332 777.431126,318.710962 755.917783,320.029475 746.762751,303.206768 759.989676,276.118113 778.270781,241.382728 763.246090,229.547342 752.338939,243.037326 736.692955,266.127379 732.425384,291.653189 734.351409,305.317801 694.636012,346.662982 678.853585,384.507037 674.346871,395.160791 675.724643,405.696215 668.671900,410.095969 636.400441,437.399149 610.897044,460.494713 593.453152,472.187136 576.581138,471.978218 556.776997,465.197125 519.988249,464.200670 450.781028,494.534690 121.343016,643.915799 118.865723,648.200315 116.769873,653.748078 157.350643,791.252562"/>
    <poly id="1063399736" type="forest" color="140,196,107" fill="0" layer="-3.00" shape="1573.927903,378.959293 1491.918009,285.959917 1413.510567,290.075722 1372.009040,292.258304 1309.405037,295.664311 1308.142614,282.003644 1307.240560,266.238051 1302.702888,266.408212 1298.926142,262.690493 1297.037849,247.591215 1163.057591,298.099482 1132.268005,309.286561 1078.999412,329.249744 1102.366225,391.813767"/>
    <poly id="1063399737" type="natural" color="140,196,107" fill="0" layer="-4.00" shape="1573.927903,378.959293 1578.192357,382.905529"/>
    <poly id="1063399738" type="natural" color="140,196,107" fill="0" layer="-4.00" shape="1730.609813,373.002493 1578.192357,382.905529"/>
    <poly id="1063399739" type="natural" color="140,196,107" fill="0" layer="-4.00" shape="3147.361308,257.321268 3111.424765,77.126510 2915.967633,107.466199 2786.623673,118.233422 2692.003746,128.656900 2596.741676,76.110740 2523.960682,61.120573 2452.196187,143.717109 2254.878519,175.055251 2190.644508,176.100384 2181.200059,164.303320 2138.825395,166.111303 2138.559698,176.641893 2108.394377,178.767809 1991.775718,198.870479 1964.591025,241.265347 1869.503830,282.001573"/>
    <poly id="1063399740" type="natural" color="140,196,107" fill="0" layer="-4.00" shape="1869.503830,282.001573 1858.032269,304.377775"/>
    <poly id="1063984911" type="building" color="255,230,230" fill="1" layer="-1.00" shape="2439.822572,445.327595 2446.844691,444.954771 2446.343136,435.588311 2443.946027,435.713169 2443.562758,428.535538 2438.930374,428.783581 2439.822572,445.327595"/>
    <poly id="1065331117" type="building" color="255,230,230" fill="1" layer="-1.00" shape="1186.204160,886.147907 1189.567778,885.612074 1190.059040,888.241627 1192.967191,887.766198 1188.885368,864.207801 1182.615455,865.396920 1186.204160,886.147907"/>
    <poly id="1065331118" type="building" color="255,230,230" fill="1" layer="-1.00" shape="1166.617045,1054.767668 1172.946292,1053.644601 1171.812735,1047.319854 1165.483599,1048.454038 1166.617045,1054.767668"/>
    <poly id="1065331119" type="building" color="255,230,230" fill="1" layer="-1.00" shape="1163.933148,1039.576775 1166.260958,1039.185288 1165.508270,1034.790886 1163.180458,1035.182373 1163.933148,1039.576775"/>
    <poly id="1065331120" type="building" color="255,230,230" fill="1" layer="-1.00" shape="1172.146465,996.800317 1171.767182,994.325219 1207.842724,988.051735 1208.265772,990.493021 1172.146465,996.800317"/>
    <poly id="1065331121" type="building" color="255,230,230" fill="1" layer="-1.00" shape="1193.812910,1003.941829 1193.078241,999.858512 1201.522543,998.390722 1202.352006,1002.395219 1193.812910,1003.941829"/>
    <poly id="1065331122" type="building" color="255,230,230" fill="1" layer="-1.00" shape="1183.202496,1005.788282 1182.578623,1001.748263 1173.898718,1003.196339 1174.824644,1007.277631 1183.202496,1005.788282"/>
    <poly id="1065331123" type="building" color="255,230,230" fill="1" layer="-1.00" shape="1208.102926,1011.972936 1210.173660,1011.617536 1209.523439,1007.866836 1207.452822,1008.233352 1208.102926,1011.972936"/>
    <poly id="1065331124" type="building" color="255,230,230" fill="1" layer="-1.00" shape="1198.457459,1032.030052 1202.195651,1031.445797 1201.872101,1029.370324 1198.126553,1029.954656 1198.457459,1032.030052"/>
    <poly id="1065331125" type="building" color="255,230,230" fill="1" layer="-1.00" shape="1205.408431,1047.965165 1216.106566,1046.073357 1214.041245,1034.411136 1203.342970,1036.291832 1205.408431,1047.965165"/>
    <poly id="1069085500" type="building" color="255,230,230" fill="1" layer="-1.00" shape="1539.438692,1071.347522 1538.964794,1071.752717 1538.654002,1072.278486 1538.542741,1072.891095 1538.630077,1073.501615 1538.922665,1074.043276 1539.375786,1074.460962 1539.944726,1074.699557 1540.526390,1074.749028 1541.098712,1074.609608 1541.595611,1074.293107 1541.966065,1073.844531 1542.181003,1073.297536 1542.204233,1072.708087 1542.043810,1072.142803 1541.715146,1071.668223 1541.218359,1071.295465 1540.627820,1071.101564 1540.010197,1071.130290 1539.438692,1071.347522"/>
    <poly id="1069085501" type="amenity" color="237,199,199" fill="1" layer="-1.00" shape="1542.049088,1075.444516 1543.960806,1076.058096 1545.485568,1071.350668 1543.581204,1070.737011 1542.049088,1075.444516"/>
    <poly id="1069085502" type="amenity" color="237,199,199" fill="1" layer="-1.00" shape="1543.960806,1076.058096 1546.116188,1076.758052 1547.640952,1072.050625 1545.485568,1071.350668 1543.960806,1076.058096"/>
    <poly id="1073428695" type="water" color="181,209,209" fill="1" layer="-4.00" shape="1458.646156,527.650140 1452.817272,498.784895 1458.246016,479.839879 1481.668140,473.990445 1489.837032,472.136907 1498.538643,520.938211 1458.646156,527.650140"/>
    <poly id="1079067073" type="parking" color="184,184,179" fill="1" layer="-1.00" shape="1644.820612,646.069449 1660.119995,730.676513 1662.704722,730.215839 1647.412616,645.597575 1644.820612,646.069449"/>
    <poly id="1079067075" type="natural" color="140,196,107" fill="0" layer="-4.00" shape="1570.047329,640.595483 1755.267004,605.891008"/>
    <poly id="1079097166" type="landuse" color="194,194,130" fill="1" layer="-3.00" shape="1672.125457,616.256169 1673.503691,624.212644 1655.423928,627.337155 1655.298653,626.615860 1654.045668,619.380683 1672.125457,616.256169"/>
    <poly id="1079097169" type="landuse" color="194,194,130" fill="1" layer="-3.00" shape="1733.190463,605.321788 1734.599085,613.378012 1682.130011,622.499108 1680.721315,614.442896 1733.190463,605.321788"/>
    <poly id="1079097172" type="building" color="255,230,230" fill="1" layer="-1.00" shape="1685.624919,646.397484 1686.795878,648.619736 1690.463592,649.003735 1692.213767,647.529054 1692.719543,643.844008 1691.112600,641.437335 1687.556270,641.152221 1685.804331,643.160540 1685.624919,646.397484"/>
    <poly id="1079100632" type="landuse" color="194,194,130" fill="1" layer="-3.00" shape="1634.867042,622.950352 1636.248603,630.517687 1570.324639,642.482470 1568.942992,634.915150 1634.867042,622.950352"/>
    <poly id="1083470495" type="parking" color="184,184,179" fill="1" layer="-1.00" shape="1503.051929,896.925353 1508.741237,895.787166 1505.177708,878.015104 1499.488265,879.142178 1503.051929,896.925353"/>
    <poly id="1092353516" type="building" color="255,230,230" fill="1" layer="-1.00" shape="1125.328384,794.342286 1133.904092,792.750722 1135.900222,803.413109 1127.317174,805.004748 1125.328384,794.342286"/>
    <poly id="1092353517" type="building" color="255,230,230" fill="1" layer="-1.00" shape="1111.315508,684.687252 1128.528930,681.770254 1125.791939,665.757282 1108.578587,668.685403 1111.315508,684.687252"/>
    <poly id="1092353518" type="building" color="255,230,230" fill="1" layer="-1.00" shape="1140.742105,724.964255 1137.345151,706.367982 1140.245567,705.848140 1143.642512,724.444415 1140.742105,724.964255"/>
    <poly id="1094609059" type="leisure" color="207,245,201" fill="1" layer="-2.00" shape="896.530789,1036.097212 829.483151,1047.660317 809.443981,932.155709 876.492970,920.592378 896.530789,1036.097212"/>
    <poly id="1094609059#1" type="sport" color="79,230,125" fill="1" layer="-2.00" shape="896.530789,1036.097212 829.483151,1047.660317 809.443981,932.155709 876.492970,920.592378 896.530789,1036.097212"/>
    <poly id="1094617331" type="parking" color="184,184,179" fill="1" layer="-1.00" shape="2040.294107,538.868448 2038.902781,519.016798 2089.001923,516.727369 2091.366527,535.390490 2040.294107,538.868448"/>
    <poly id="1094653813" type="landuse" color="194,194,130" fill="1" layer="-3.00" shape="1156.712624,715.834931 1155.555630,709.388150 1263.567599,689.903438 1264.724471,696.350240 1156.712624,715.834931"/>
    <poly id="1094653814" type="landuse" color="194,194,130" fill="1" layer="-3.00" shape="1092.261413,727.756441 1091.030788,721.310451 1145.177941,711.032095 1146.408387,717.466980 1092.261413,727.756441"/>
    <poly id="1095133498" type="building" color="255,230,230" fill="1" layer="-1.00" shape="3039.194724,1081.164154 3045.506167,1089.048169 3050.934872,1084.723635 3043.654817,1075.637781 3040.743573,1077.968823 3041.704719,1079.159615 3039.194724,1081.164154"/>
    <poly id="1095133499" type="building" color="255,230,230" fill="1" layer="-1.00" shape="3134.130698,1175.820980 3136.878919,1169.778571 3157.357270,1179.040878 3154.609031,1185.083276 3134.130698,1175.820980"/>
    <poly id="1095133500" type="building" color="255,230,230" fill="1" layer="-1.00" shape="3159.424435,1184.089102 3158.309594,1186.568475 3180.345828,1196.404140 3185.502563,1184.900926 3169.319065,1177.684618 3165.269730,1186.697433 3159.424435,1184.089102"/>
    <poly id="1095133501" type="aeroway" color="grey" fill="1" layer="-2.00" shape="3057.705875,526.814010 3056.904320,511.758679 3061.661595,511.498750 3062.463251,526.565197 3057.705875,526.814010"/>
    <poly id="1095133501#1" type="building" color="255,230,230" fill="1" layer="-1.00" shape="3057.705875,526.814010 3056.904320,511.758679 3061.661595,511.498750 3062.463251,526.565197 3057.705875,526.814010"/>
    <poly id="1098551015" type="leisure" color="207,245,201" fill="1" layer="-2.00" shape="1624.399210,548.731567 1621.877477,534.872831 1648.334451,530.092831 1650.848764,543.951656 1624.399210,548.731567"/>
    <poly id="1098551015#1" type="sport" color="79,230,125" fill="1" layer="-2.00" shape="1624.399210,548.731567 1621.877477,534.872831 1648.334451,530.092831 1650.848764,543.951656 1624.399210,548.731567"/>
    <poly id="118793670" type="natural" color="140,196,107" fill="0" layer="-4.00" shape="1730.609813,373.002493 1742.938994,367.948510 1761.448696,360.128405 1769.621202,355.785023 1826.468481,326.074716 1858.032269,304.377775"/>
    <poly id="140538734" type="building" color="255,230,230" fill="1" layer="-1.00" shape="1838.057549,670.281784 1813.093773,674.989694 1805.522379,633.379968 1869.113956,622.042656 1872.316952,639.907628 1881.789940,638.252254 1878.585812,620.276118 1898.780068,616.730029 1901.670154,632.819557 1904.680316,632.232264 1904.367499,630.456804 1910.536107,629.391845 1907.958861,615.077773 1964.279937,604.929188 1967.874793,625.124699 1902.448715,636.924731 1906.199023,657.896777 1944.675921,650.935988 1948.344383,671.130720 1919.046316,676.439247 1919.360286,678.325866 1906.069226,680.688077 1905.754090,678.690300 1857.804523,687.306759 1858.581947,691.300770 1850.579080,692.829645 1851.047164,695.381673 1817.781757,701.176892 1814.337007,681.313407 1887.022741,667.324242 1882.260337,641.026600 1872.860913,642.681205 1873.494696,647.010230 1841.839162,652.010284 1841.205355,647.681262 1834.374739,648.753221 1838.057549,670.281784"/>
    <poly id="140996258" type="building" color="255,230,230" fill="1" layer="-1.00" shape="2197.984900,1093.335112 2200.233498,1091.688653 2200.582399,1093.408168 2197.984900,1093.335112"/>
    <poly id="140996259" type="landuse" color="194,194,130" fill="1" layer="-3.00" shape="2197.145537,1094.677881 2197.011905,1091.021763 2200.482619,1090.885637 2200.582399,1093.408168 2200.623720,1094.552794 2197.145537,1094.677881"/>
    <poly id="140997926" type="building" color="255,230,230" fill="1" layer="-1.00" shape="1976.818876,313.209540 1977.529000,309.344521 1981.509477,310.070080 1980.799350,313.935098 1976.818876,313.209540"/>
    <poly id="142055302" type="building" color="255,230,230" fill="1" layer="-1.00" shape="1789.934035,1124.083085 1792.326082,1126.314811 1794.481490,1124.913738 1796.434233,1123.125689 1797.209974,1122.039216 1795.509216,1119.789135 1789.934035,1124.083085"/>
    <poly id="142059681" type="building" color="255,230,230" fill="1" layer="-1.00" shape="1853.493094,913.861727 1853.046827,911.987611 1852.925719,910.254617 1853.082847,908.396426 1853.602843,906.767900 1854.403633,905.258726 1855.537054,903.901714 1856.994242,902.552434 1858.201187,901.895028 1859.655168,901.646371 1879.584404,898.180781 1881.002887,898.054788 1882.558301,898.360929 1883.732382,898.782226 1885.049356,899.502190 1886.570509,900.753640 1888.080898,902.383182 1888.989747,904.174648 1889.258655,905.972801 1889.127298,908.186466 1888.777982,909.957727 1887.884928,911.790254 1886.955832,912.989487 1885.344753,914.395952 1884.138853,915.153395 1882.313802,915.795020 1862.213588,919.084515 1860.034924,918.973885 1858.524229,918.722868 1856.823368,917.873518 1855.411851,916.554228 1854.435478,915.341560 1853.493094,913.861727"/>
    <poly id="142060977" type="landuse" color="194,194,130" fill="1" layer="-3.00" shape="2923.723924,953.524218 2925.896961,940.906337 2930.811163,933.752131 2938.634272,928.335685 2947.109710,926.269896 2955.586063,927.161235 2963.444762,930.949345 2968.251041,935.502494 2972.485502,943.118689 2973.819060,949.775220 2972.834059,958.456591 2969.985433,964.744683 2964.093207,971.219632 2960.234213,973.671605 2951.837758,976.259066 2943.779435,975.952646 2937.622659,973.848003 2932.230283,970.245841 2926.761137,963.465007 2923.723924,953.524218"/>
    <poly id="142061079" type="landuse" color="194,194,130" fill="1" layer="-3.00" shape="3004.546485,1027.279280 3008.751081,1033.428362 3010.831364,1033.996243 3012.710086,1034.277149 3014.471707,1033.180745 3015.345544,1031.593174 3015.429091,1030.413915 3014.622916,1028.554518 3010.156488,1022.697158 3004.546485,1027.279280"/>
    <poly id="142061080" type="landuse" color="194,194,130" fill="1" layer="-3.00" shape="2984.041326,998.262862 2969.262368,980.315917 2968.558748,979.133613 2968.545637,977.855291 2970.010993,976.561806 2971.783682,976.543626 2987.578887,996.748029 2987.100198,998.131447 2985.725451,998.934849 2984.041326,998.262862"/>
    <poly id="142061081" type="landuse" color="194,194,130" fill="1" layer="-3.00" shape="2995.520367,1015.798992 2991.220122,1009.650901 2990.803779,1007.787511 2991.472975,1005.612833 2992.447561,1004.524491 2994.614361,1004.202119 2996.395131,1004.973172 3001.201587,1011.705280 2995.520367,1015.798992"/>
    <poly id="142061082" type="landuse" color="194,194,130" fill="1" layer="-3.00" shape="3022.735455,1077.953210 3020.741819,1066.456413 3019.489429,1059.098667 3017.626714,1051.046804 3015.783977,1045.662819 3014.964704,1042.525100 3015.241836,1040.854709 3016.114647,1039.167095 3018.382182,1039.343965 3020.557352,1039.121570 3022.232463,1038.915416 3024.610653,1040.558600 3031.778557,1046.588400 3047.718440,1061.566490 3063.637907,1075.277494 3082.153950,1090.418290 3102.221499,1104.787314 3123.177090,1118.246846 3148.385285,1133.230472 3158.989523,1137.946842 3158.716642,1139.317023 3141.814592,1135.943505 3116.711009,1131.186489 3095.556905,1127.078419 3068.662088,1121.250480 3061.633603,1118.765533 3053.401475,1115.114518 3045.938258,1109.688035 3038.375603,1103.173113 3031.987308,1094.967500 3027.073151,1087.046949 3025.751055,1082.936084 3022.735455,1077.953210"/>
    <poly id="142061083" type="landuse" color="194,194,130" fill="1" layer="-3.00" shape="2926.002558,926.108508 2913.794061,909.213674 2900.190528,891.154785 2891.245287,878.995691 2891.736177,878.801661 2900.260928,888.697202 2920.041983,912.306771 2929.131881,923.519479 2929.439225,924.794781 2928.865948,926.279227 2927.884288,926.678397 2926.002558,926.108508"/>
    <poly id="142756379" type="building" color="255,230,230" fill="1" layer="-1.00" shape="1189.694034,269.158053 1188.392243,265.025149 1194.794029,263.023110 1196.088459,267.156094 1189.694034,269.158053"/>
    <poly id="143745633" type="building" color="255,230,230" fill="1" layer="-1.00" shape="1451.732697,229.352194 1455.441934,217.573550 1460.025917,219.003882 1456.316671,230.782523 1451.732697,229.352194"/>
    <poly id="143745641" type="building" color="255,230,230" fill="1" layer="-1.00" shape="1477.228147,179.201721 1481.316656,169.197836 1469.324340,164.332432 1465.235849,174.336327 1477.228147,179.201721"/>
    <poly id="143745642" type="building" color="255,230,230" fill="1" layer="-1.00" shape="1448.150687,267.198997 1447.777809,259.732261 1440.475954,260.109276 1440.856082,267.564819 1448.150687,267.198997"/>
    <poly id="143745644" type="building" color="255,230,230" fill="1" layer="-1.00" shape="1276.648850,171.443296 1281.215100,169.093870 1281.423329,167.212889 1275.041280,169.703769 1276.648850,171.443296"/>
    <poly id="143746527" type="building" color="255,230,230" fill="1" layer="-1.00" shape="1311.567996,238.466450 1311.468578,237.411378 1318.899592,236.721555 1318.999009,237.776627 1311.567996,238.466450"/>
    <poly id="149360697" type="building" color="255,230,230" fill="1" layer="-1.00" shape="2538.658143,466.795396 2475.592643,470.237649 2476.937381,494.981350 2507.312015,493.333254 2538.171944,491.658075 2540.002833,491.561341 2539.304918,478.839563 2538.658143,466.795396"/>
    <poly id="149360697#1" type="leisure" color="207,245,201" fill="1" layer="-2.00" shape="2538.658143,466.795396 2475.592643,470.237649 2476.937381,494.981350 2507.312015,493.333254 2538.171944,491.658075 2540.002833,491.561341 2539.304918,478.839563 2538.658143,466.795396"/>
    <poly id="149360697#2" type="sport" color="79,230,125" fill="1" layer="-2.00" shape="2538.658143,466.795396 2475.592643,470.237649 2476.937381,494.981350 2507.312015,493.333254 2538.171944,491.658075 2540.002833,491.561341 2539.304918,478.839563 2538.658143,466.795396"/>
    <poly id="160212565" type="water" color="181,209,209" fill="0" layer="-4.00" shape="1867.857113,303.952702 1867.079156,313.288029 1863.177925,315.218696"/>
    <poly id="167196563" type="building" color="255,230,230" fill="1" layer="-1.00" shape="1190.669666,524.306672 1267.235955,511.269004 1273.414239,547.356479 1196.848432,560.394067 1190.669666,524.306672"/>
    <poly id="167196564" type="building" color="255,230,230" fill="1" layer="-1.00" shape="1624.674162,428.408817 1506.971076,447.599247 1512.867166,483.578751 1535.407292,479.906642 1532.404445,461.595060 1543.737025,459.752819 1546.622017,477.354153 1566.650328,474.086544 1563.734104,456.307656 1575.617488,454.370757 1578.573142,472.404929 1599.078942,469.065720 1596.366803,452.496433 1605.642817,450.976070 1608.330878,467.356624 1630.467115,463.744724 1624.674162,428.408817"/>
    <poly id="167196565" type="building" color="255,230,230" fill="1" layer="-1.00" shape="1188.333901,508.656296 1264.632723,494.654240 1258.015307,458.793753 1181.716010,472.795895 1188.333901,508.656296"/>
    <poly id="169336561" type="building" color="255,230,230" fill="1" layer="-1.00" shape="1097.016730,577.258704 1174.394867,563.855408 1168.356296,529.211770 1090.985048,542.615067 1097.016730,577.258704"/>
    <poly id="170525718" type="parking" color="184,184,179" fill="1" layer="-1.00" shape="2544.478950,549.545946 2544.290367,546.246139 2542.624256,517.425799 2443.041080,523.157919 2443.132126,524.846765 2444.969905,555.277276 2489.761385,552.690604 2502.878373,551.943555 2513.135099,551.348385 2544.478950,549.545946"/>
    <poly id="172384646" type="commercial" color="209,209,204" fill="1" layer="-3.00" shape="1312.621410,1068.400012 1277.667265,847.783739 1504.528042,812.042162 1549.803594,1076.241265 1558.807937,1128.774835 1513.622251,1136.787194 1523.523561,1194.847585 1484.192901,1202.765282 1328.390858,1176.958638 1312.621410,1068.400012"/>
    <poly id="172969387" type="industrial" color="209,209,204" fill="1" layer="-3.00" shape="1062.947386,593.283504 1073.428023,591.616087 1183.582695,576.287197 1291.325551,555.449636 1282.134272,500.850679 1270.493948,431.714236 1220.317236,440.648674 1049.868713,532.367102 1051.443810,539.376403 1062.947386,593.283504"/>
    <poly id="176156006" type="building" color="255,230,230" fill="1" layer="-1.00" shape="2681.920116,464.550119 2738.531227,461.587964 2736.728419,427.254958 2680.109605,430.217205 2681.920116,464.550119"/>
    <poly id="176156006#1" type="leisure" color="207,245,201" fill="1" layer="-2.00" shape="2681.920116,464.550119 2738.531227,461.587964 2736.728419,427.254958 2680.109605,430.217205 2681.920116,464.550119"/>
    <poly id="177175453" type="landuse" color="194,194,130" fill="1" layer="-3.00" shape="1218.860170,375.162313 1224.618768,378.447708 1232.938966,379.071304 1228.895326,381.426370 1222.436789,387.097604 1200.649265,388.906463 1182.086925,381.231799 1179.655446,377.411001 1190.982711,377.146728 1196.972954,374.504250 1212.716565,377.217184 1218.860170,375.162313"/>
    <poly id="177175453#1" type="natural" color="140,196,107" fill="1" layer="-4.00" shape="1218.860170,375.162313 1224.618768,378.447708 1232.938966,379.071304 1228.895326,381.426370 1222.436789,387.097604 1200.649265,388.906463 1182.086925,381.231799 1179.655446,377.411001 1190.982711,377.146728 1196.972954,374.504250 1212.716565,377.217184 1218.860170,375.162313"/>
    <poly id="177175453#2" type="sport" color="79,230,125" fill="1" layer="-2.00" shape="1218.860170,375.162313 1224.618768,378.447708 1232.938966,379.071304 1228.895326,381.426370 1222.436789,387.097604 1200.649265,388.906463 1182.086925,381.231799 1179.655446,377.411001 1190.982711,377.146728 1196.972954,374.504250 1212.716565,377.217184 1218.860170,375.162313"/>