<?xml version="1.0" encoding="UTF-8"?>

<!-- generated on 2022-10-26 15:44:41 by Eclipse SUMO duarouter Version 1.14.1
<configuration xmlns:xsi="http://www.w3.org/2001/XMLSchema-instance" xsi:noNamespaceSchemaLocation="http://sumo.dlr.de/xsd/duarouterConfiguration.xsd">

    <input>
        <net-file value="IRTSmap.net.xml"/>
        <route-files value="IRTSmap.trips.xml"/>
    </input>

    <output>
        <output-file value="IRTSmap.rou.xml"/>
    </output>

    <report>
        <ignore-errors value="true"/>
    </report>

</configuration>
-->

<routes xmlns:xsi="http://www.w3.org/2001/XMLSchema-instance" xsi:noNamespaceSchemaLocation="http://sumo.dlr.de/xsd/routes_file.xsd">
    <vehicle id="0" depart="0.00">
        <route edges="263684089#0 263684089#1 -47519280#11 -47519280#10 -47519280#9 -47519280#8 -47519280#7 -47519280#6 -47519280#4 -47519280#3 -47519280#2 -47519280#1 363081449#2 363081449#3 363081449#4 -1026161829#3 -1026161829#2"/>
    </vehicle>
    <vehicle id="2" depart="2.00">
        <route edges="404287181#3 404287181#4 404287181#5 363081449#2 363081449#3"/>
    </vehicle>
    <vehicle id="3" depart="3.00">
        <route edges="671116033#0 671113567#2 671113566 363082411#0 363082411#2 363082411#3 821251483#1 376385690#1 376385690#2 376385690#3 376385690#4 376385690#5 404287181#3 404287181#4 404287181#5 363081449#2 363081449#3 363081449#4 339736822#0 339736822#1 339736822#2 339736822#3 741201990#0 741201990#1 741201990#2 741201990#3 741201990#4 741201990#5 233629756#0 233629756#1 233629756#2 233629756#3 233629756#4 233629756#5 233629756#6 233629756#7 233629756#8 233629756#9 233629756#10 233629756#11 233629756#12 233629756#13 233629756#14 -233629756#14 -233629756#13 -233629756#12 -233629756#11 -233629756#10 -233629756#9 -233629756#8 -233629756#7 -233629756#6 -233629756#5 -233629756#4 -233629756#3 -233629756#2 -233629756#1 -233629756#0"/>
    </vehicle>
    <vehicle id="5" depart="5.00">
        <route edges="-408197310#4 -408197310#3 -408197310#2 408197310#2 408197310#3 408197310#4 408197310#5 408197310#6 408197310#7 671113566 363082411#0 363082411#2 363082411#3 821251483#1 376385690#1 376385690#2 376385690#3 376385690#4 376385690#5 404287181#3 404287181#4 404287181#5 363081449#2 363081449#3 363081449#4 339736822#0 339736822#1 339736822#2 339736822#3 741201990#0 741201990#1 741201990#2 741201990#3 741201990#4 741201990#5 233629756#0 233629756#1 233629756#2 233629756#3 233629756#4 233629756#5 233629756#6 233629756#7 233629756#8 233629756#9 233629756#10 233629756#11 233629756#12 233629756#13 233629756#14 183301162#0"/>
    </vehicle>
    <vehicle id="6" depart="6.00">
        <route edges="-1026201965 -591266407#3 -591266407#2 -591266407#1 -591266407#0 591266407#0 591266407#1 591266407#2 591266407#3 1026201965 1026143467#0 1026143467#1 1026143467#2 1026143467#3 1026143467#4 -783248710#2 -783248710#1 -783248710#0 1026161829#2 1026161829#3 -363081449#4"/>
    </vehicle>
    <vehicle id="7" depart="7.00">
        <route edges="26824594 140997949 140997933 140997942 140997946#0 25150411 548881044 -741142478 489344451#2 741201990#0 741201990#1 741201990#2 741201990#3 741201990#4 741201990#5 233629756#0 233629756#1 233629756#2 233629756#3 233629756#4 233629756#5 233629756#6 233629756#7 233629756#8 233629756#9 233629756#10 233629756#11 233629756#12 233629756#13 233629756#14 183301162#0 183301162#1 183301162#2 183301162#3 183301162#4 183301162#5 142060980 20444004#6"/>
    </vehicle>
    <vehicle id="8" depart="8.00">
        <route edges="-408197310#4 -408197310#3 -408197310#2 408197310#2 408197310#3 408197310#4 408197310#5 408197310#6 408197310#7 671113566 363082411#0 363082411#2 363082411#3 821251483#1 376385690#1 376385690#2 376385690#3 376385690#4 376385690#5 404287181#3 404287181#4 404287181#5 363081449#2 363081449#3 363081449#4 339736822#0 339736822#1 339736822#2 339736822#3 741201990#0 741201990#1 741201990#2 741201990#3 741201990#4 741201990#5 233629756#0 233629756#1 233629756#2 233629756#3 233629756#4"/>
    </vehicle>
    <vehicle id="9" depart="9.00">
        <route edges="47519280#8 -47519280#8 -47519280#7 -47519280#6 -47519280#4 -47519280#3 -47519280#2 -47519280#1 363081449#2 363081449#3 363081449#4 -1026161829#3 -1026161829#2 783248710#0 783248710#1 783248710#2 -1026143467#4 -1026143467#3 -1026143467#2"/>
    </vehicle>
    <vehicle id="10" depart="10.00">
        <route edges="47519280#7 -47519280#7 -47519280#6 -47519280#4 -47519280#3 -47519280#2 -47519280#1 406017622#1 406017622#3 406017622#4 406017622#5 697770118#2 697770118#3 697770118#4 697770118#5 697770118#6 697770118#7 697770118#8 697770118#9 363082411#0 363082411#2 363082411#3 821251483#1 376385690#1 376385690#2"/>
    </vehicle>
    <vehicle id="11" depart="11.00">
        <route edges="-741201990#0 -339736822#3 -339736822#2 -339736822#1 -339736822#0 -363081449#4 -363081449#3 -363081449#2 47519280#0 47519280#2 47519280#3 47519280#4 47519280#6 47519280#7 47519280#8 47519280#9 47519280#10 47519280#11 -263684089#1 -263684089#0 -263684088"/>
    </vehicle>
    <vehicle id="12" depart="12.00">
        <route edges="747059915#2 747059915#4 867981793 406513809#1 406017622#1 406017622#3 406017622#4 406017622#5 -673347936#0"/>
    </vehicle>
    <vehicle id="13" depart="13.00">
        <route edges="-233629756#10 -233629756#9 -233629756#8 -233629756#7 -233629756#6 -233629756#5 -233629756#4 -233629756#3 -233629756#2 -233629756#1 -233629756#0 -741201990#5 -741201990#4 -741201990#3 -741201990#2 -741201990#1 -741201990#0 741201990#0 741201990#1 741201990#2 741201990#3 741201990#4 741201990#5 233629756#0 233629756#1 233629756#2 233629756#3 233629756#4 233629756#5 233629756#6 233629756#7 233629756#8 233629756#9 233629756#10 233629756#11 233629756#12 233629756#13 233629756#14 -233629756#14 -233629756#13 -233629756#12 -233629756#11"/>
    </vehicle>
    <vehicle id="14" depart="14.00">
        <route edges="548881044 -741142478 489344451#2 741201990#0 741201990#1 741201990#2 741201990#3 741201990#4 741201990#5 233629756#0 233629756#1 233629756#2 233629756#3 233629756#4 233629756#5 233629756#6 233629756#7 233629756#8"/>
    </vehicle>
    <vehicle id="15" depart="15.00">
        <route edges="47519280#7 -47519280#7 -47519280#6 -47519280#4 -47519280#3 -47519280#2 -47519280#1 406017622#1 406017622#3 406017622#4 406017622#5 404287181#3 404287181#4"/>
    </vehicle>
    <vehicle id="17" depart="17.00">
        <route edges="-83487127#3 -83487127#2 -83487127#1 404287181#3 404287181#4 404287181#5 363081449#2 363081449#3 363081449#4 339736822#0 339736822#1 339736822#2 339736822#3 741201990#0 741201990#1 741201990#2 741201990#3 741201990#4 741201990#5 233629756#0 233629756#1 233629756#2 233629756#3 233629756#4 233629756#5 233629756#6 233629756#7 233629756#8 233629756#9 233629756#10 233629756#11 233629756#12 233629756#13 233629756#14 183301162#0 183301162#1 183301162#2 183301162#3 183301162#4 183301162#5 142060980 20444004#6 20444245#0"/>
    </vehicle>
    <vehicle id="18" depart="18.00">
        <route edges="490606276 -548881039#0 -183301162#3 -183301162#2 -183301162#1 -183301162#0 25115805#0 25115805#1 25115805#2 548881042 -250690937#2 -250690937#1 -250690937#0 250690937#0 250690937#1"/>
    </vehicle>
    <vehicle id="19" depart="19.00">
        <route edges="59709079#1 59709079#2 59709079#3 -59709079#3 -59709079#2 -59709079#1 -548881042 -25115805#2 -25115805#1 -25115805#0 -233629756#14 -233629756#13 -233629756#12 -233629756#11 -233629756#10 -233629756#9 -233629756#8 -233629756#7 -233629756#6 -233629756#5 -233629756#4 -233629756#3 -233629756#2 -233629756#1 -233629756#0 -741201990#5 -741201990#4 -741201990#3 -741201990#2 -741201990#1 -741201990#0 741201990#0 741201990#1 741201990#2 741201990#3 741201990#4 741201990#5 233629756#0 233629756#1 233629756#2 233629756#3 233629756#4 233629756#5 233629756#6 233629756#7 233629756#8 233629756#9 233629756#10 233629756#11 233629756#12 233629756#13"/>
    </vehicle>
    <vehicle id="20" depart="20.00">
        <route edges="376385690#1 376385690#2 376385690#3 376385690#4 376385690#5 404287181#3 404287181#4 404287181#5 747059915#1 747059915#2 747059915#4 489344451#0 741142478 -548881044 -480645125 -140997946#0 -140997942 -60844538 140997936 140997927#1 140997927#2 -140997927#2"/>
    </vehicle>
    <vehicle id="21" depart="21.00">
        <route edges="-408197310#7 -408197310#6 -408197310#5 -408197310#4 -408197310#3 -408197310#2 408197310#2 408197310#3 408197310#4 408197310#5 408197310#6 408197310#7 671113566 363082411#0 363082411#2 363082411#3 821251483#1 376385690#1 376385690#2 376385690#3 376385690#4 376385690#5 404287181#3 404287181#4 404287181#5 363081449#2 363081449#3 363081449#4 339736822#0 339736822#1 339736822#2 339736822#3 741201990#0 741201990#1 741201990#2 741201990#3 741201990#4 741201990#5 233629756#0 233629756#1 233629756#2 233629756#3 233629756#4 233629756#5 233629756#6 233629756#7 233629756#8 233629756#9 233629756#10 233629756#11 233629756#12 233629756#13 233629756#14 183301162#0 183301162#1 183301162#2 183301162#3 490606276 548881039#1 548881039#2 548881039#3 -548881039#3 -548881039#2 -548881039#1"/>
    </vehicle>
    <vehicle id="22" depart="22.00">
        <route edges="-183301162#5 -183301162#4 -183301162#3 -183301162#2 -183301162#1 -183301162#0 -233629756#14 -233629756#13 -233629756#12 -233629756#11 -233629756#10 -233629756#9 -233629756#8 -233629756#7 -233629756#6 -233629756#5 -233629756#4 -233629756#3 -233629756#2 -233629756#1 -233629756#0 -741201990#5 -741201990#4 -741201990#3 -741201990#2 -741201990#1 -741201990#0 -339736822#3 -339736822#2 -339736822#1 -339736822#0 -363081449#4 -363081449#3 -363081449#2 406017622#1 406017622#3 406017622#4 406017622#5 697770118#2 697770118#3 697770118#4 697770118#5 697770118#6 697770118#7 697770118#8 697770118#9 -671113566 -408197310#7 -408197310#6 -408197310#5"/>
    </vehicle>
    <vehicle id="23" depart="23.00">
        <route edges="-233629756#13 -233629756#12 -233629756#11 -233629756#10 -233629756#9 -233629756#8 -233629756#7 -233629756#6 -233629756#5 -233629756#4 -233629756#3 -233629756#2 -233629756#1 -233629756#0 -741201990#5 -741201990#4 -741201990#3 -741201990#2 -741201990#1 -741201990#0 -489344451#2 -489344451#0"/>
    </vehicle>
    <vehicle id="24" depart="24.00">
        <route edges="263684088 263684089#0 263684089#1 -47519280#11 -47519280#10 -47519280#9 -47519280#8 -47519280#7 -47519280#6 -47519280#4 -47519280#3 -47519280#2 -47519280#1 363081449#2 363081449#3 363081449#4 -1026161829#3 -1026161829#2 783248710#0 783248710#1 783248710#2 -1026143467#4 1026143467#4 -783248710#2 -783248710#1 -783248710#0"/>
    </vehicle>
    <vehicle id="25" depart="25.00">
        <route edges="-83487127#1 404287181#3 404287181#4 404287181#5 47519280#0 47519280#2 47519280#3 47519280#4 47519280#6 47519280#7 47519280#8 47519280#9 47519280#10 47519280#11 1086025331#1 392689403#0 392689403#1 392689403#2 -392689403#2 -392689403#1 -392689403#0"/>
    </vehicle>
    <vehicle id="26" depart="26.00">
        <route edges="-489344451#0 489344451#0 489344451#2 741201990#0 741201990#1"/>
    </vehicle>
    <vehicle id="27" depart="27.00">
        <route edges="26824560 140997949 140997933 140997942 140997946#0 25150411 548881044 -741142478 -489344451#0 867981793 406513809#1 406017622#1 406017622#3 406017622#4 406017622#5 -673347936#0 1086025330#0 250683470#1"/>
    </vehicle>
    <vehicle id="28" depart="28.00">
        <route edges="-339736822#1 -339736822#0 -363081449#4 -363081449#3 -363081449#2 406017622#1 406017622#3 406017622#4 406017622#5 404287181#3"/>
    </vehicle>
    <vehicle id="29" depart="29.00">
        <route edges="-26824609 26824609 26824596 140997933 140997942 140997946#0 25150411 548881044 -741142478 -489344451#0 867981793 406513809#1 406017622#1 406017622#3 406017622#4 406017622#5 83487127#1 83487127#2 83487127#3 83487127#5 -83487127#5 -83487127#3 -83487127#2 -83487127#1"/>
    </vehicle>
    <vehicle id="30" depart="30.00">
        <route edges="83487127#2 83487127#3 83487127#5 -83487127#5 -83487127#3 -83487127#2 -83487127#1 404287181#3 404287181#4 404287181#5 47519280#0 47519280#2 47519280#3 47519280#4 47519280#6 47519280#7 47519280#8 47519280#9 47519280#10 47519280#11 -263684089#1 -263684089#0 -263684088 -263684087 263684087 263684088 263684089#0"/>
    </vehicle>
    <vehicle id="31" depart="31.00">
        <route edges="233629756#1 233629756#2 233629756#3 233629756#4 233629756#5 233629756#6 233629756#7 233629756#8 233629756#9 233629756#10 233629756#11 233629756#12 233629756#13 233629756#14 -233629756#14 -233629756#13 -233629756#12 -233629756#11 -233629756#10 -233629756#9 -233629756#8 -233629756#7 -233629756#6 -233629756#5 -233629756#4 -233629756#3 -233629756#2 -233629756#1 -233629756#0 -741201990#5 -741201990#4 -741201990#3 -741201990#2 -741201990#1 -741201990#0 -339736822#3 -339736822#2 -339736822#1 -339736822#0 -363081449#4 -363081449#3 -363081449#2 406017622#1 406017622#3 406017622#4 406017622#5 697770118#2 697770118#3 697770118#4 697770118#5 697770118#6 697770118#7 697770118#8 697770118#9 363082411#0"/>
    </vehicle>
    <vehicle id="32" depart="32.00">
        <route edges="548881042 -548881042 -25115805#2 -25115805#1 -25115805#0 -233629756#14 -233629756#13 -233629756#12 -233629756#11 -233629756#10 -233629756#9 -233629756#8 -233629756#7 -233629756#6 -233629756#5 -233629756#4 -233629756#3 -233629756#2 -233629756#1 -233629756#0 -741201990#5 -741201990#4 -741201990#3 -741201990#2 -741201990#1 -741201990#0 -339736822#3 -339736822#2 -339736822#1 -339736822#0 -363081449#4 -363081449#3 -363081449#2 406017622#1 406017622#3 406017622#4 406017622#5 697770118#2 697770118#3 697770118#4 697770118#5 697770118#6 697770118#7 697770118#8 697770118#9 410000810#4 410000810#6"/>
    </vehicle>
    <vehicle id="33" depart="33.00">
        <route edges="-408197310#7 -408197310#6 -408197310#5 -408197310#4 -408197310#3 -408197310#2 408197310#2 408197310#3 408197310#4 408197310#5 408197310#6 408197310#7 -671113567#2 1086025333 671165803#0 671165803#1 671165804 -532830795#2 -392689403#2 -392689403#1 -392689403#0 -1086025331#1"/>
    </vehicle>
    <vehicle id="34" depart="34.00">
        <route edges="-59709079#3 -59709079#2 -59709079#1 -548881042 -25115805#2 -25115805#1 -25115805#0 -233629756#14 -233629756#13 -233629756#12 -233629756#11 -233629756#10 -233629756#9 -233629756#8 -233629756#7 -233629756#6 -233629756#5 -233629756#4 -233629756#3 -233629756#2 -233629756#1 -233629756#0 -741201990#5 -741201990#4 -741201990#3 -741201990#2 -741201990#1 -741201990#0 -339736822#3 -339736822#2 -339736822#1 -339736822#0 -363081449#4 -363081449#3 -363081449#2 47519280#0 47519280#2 47519280#3 47519280#4 47519280#6 47519280#7 47519280#8 -47519280#8"/>
    </vehicle>
    <vehicle id="36" depart="36.00">
        <route edges="624498954#2 624498954#3 -47519280#3 -47519280#2 -47519280#1 363081449#2 363081449#3 363081449#4 -1026161829#3 -1026161829#2 783248710#0 783248710#1 783248710#2 -1026143467#4 -1026143467#3 -1026143467#2 -1026143467#1 -1026143467#0 -1026201965 -591266407#3"/>
    </vehicle>
    <vehicle id="37" depart="37.00">
        <route edges="26824596 140997933 140997942 140997946#0 25150411 548881044 -741142478 -489344451#0 867981793 406513809#1 406017622#1 406017622#3 406017622#4 406017622#5 83487127#1 83487127#2 83487127#3 83487127#5 591266407#0 591266407#1 591266407#2 591266407#3 1026201965 1026143467#0 1026143467#1"/>
    </vehicle>
    <vehicle id="38" depart="38.00">
        <route edges="697770118#4 697770118#5 697770118#6 697770118#7 697770118#8 697770118#9 363082411#0 363082411#2 363082411#3 821251483#1 376385690#1 376385690#2 376385690#3 376385690#4 376385690#5 404287181#3 404287181#4 404287181#5 363081449#2 363081449#3 363081449#4 339736822#0 339736822#1 339736822#2 339736822#3 741201990#0 741201990#1 741201990#2 741201990#3 741201990#4 741201990#5 233629756#0 233629756#1 233629756#2 233629756#3 233629756#4 233629756#5 233629756#6 233629756#7 233629756#8 233629756#9 233629756#10 233629756#11 233629756#12 233629756#13 233629756#14 183301162#0 183301162#1 183301162#2 183301162#3 183301162#4 183301162#5 142060980 20444004#6 20444245#0 20444245#1 791556261#0 1096089687 117943112"/>
    </vehicle>
    <vehicle id="39" depart="39.00">
        <route edges="-480645125 25150411 548881044 -741142478 -489344451#0 867981793 406513809#1 47519280#0 47519280#2 47519280#3 47519280#4 47519280#6 47519280#7 47519280#8 47519280#9 47519280#10 47519280#11 -47519280#11 -47519280#10"/>
    </vehicle>
    <vehicle id="40" depart="40.00">
        <route edges="233629756#10 233629756#11 233629756#12 233629756#13 233629756#14 -233629756#14 -233629756#13 -233629756#12 -233629756#11 -233629756#10 -233629756#9 -233629756#8 -233629756#7 -233629756#6 -233629756#5 -233629756#4 -233629756#3 -233629756#2 -233629756#1 -233629756#0 -741201990#5 -741201990#4 -741201990#3 -741201990#2 -741201990#1 -741201990#0 -339736822#3 -339736822#2 -339736822#1 -339736822#0 -363081449#4 -363081449#3 -363081449#2 47519280#0 47519280#2 47519280#3 47519280#4 47519280#6 47519280#7 -47519280#7 -47519280#6"/>
    </vehicle>
    <vehicle id="41" depart="41.00">
        <route edges="233629756#5 233629756#6 233629756#7 233629756#8 233629756#9 233629756#10 233629756#11 233629756#12 233629756#13 233629756#14 -233629756#14 -233629756#13 -233629756#12 -233629756#11 -233629756#10 -233629756#9 -233629756#8 -233629756#7 -233629756#6 -233629756#5 -233629756#4 -233629756#3 -233629756#2 -233629756#1 -233629756#0 -741201990#5 -741201990#4 -741201990#3 -741201990#2 -741201990#1 -741201990#0 -339736822#3 -339736822#2 -339736822#1 -339736822#0 -363081449#4 -363081449#3 -363081449#2 406017622#1 406017622#3 406017622#4 406017622#5 697770118#2 697770118#3 697770118#4 697770118#5 697770118#6 697770118#7 697770118#8 697770118#9 -671113566 -671113567#2 1086025333 671165803#0 671165803#1"/>
    </vehicle>
    <vehicle id="42" depart="42.00">
        <route edges="1026143474#1 1026143474#2 478028845#1 363081449#3 363081449#4 -1026161829#3 -1026161829#2 783248710#0 783248710#1 783248710#2 -1026143467#4 -1026143467#3 -1026143467#2 -1026143467#1 -1026143467#0 -1026201965 -591266407#3 -591266407#2 -591266407#1 -591266407#0 -392689404"/>
    </vehicle>
    <vehicle id="43" depart="43.00">
        <route edges="867981793 406513809#1 363081449#2 363081449#3 363081449#4 339736822#0 339736822#1 339736822#2 339736822#3 741201990#0 741201990#1 741201990#2 741201990#3 741201990#4 741201990#5 233629756#0 233629756#1 233629756#2 233629756#3 233629756#4 233629756#5 233629756#6 233629756#7 233629756#8 233629756#9 233629756#10 233629756#11 233629756#12 233629756#13 233629756#14 183301162#0 183301162#1 183301162#2"/>
    </vehicle>
    <vehicle id="44" depart="44.00">
        <route edges="-233629756#1 -233629756#0 -741201990#5 -741201990#4 -741201990#3 -741201990#2 -741201990#1 -741201990#0 -489344451#2 741142478 -548881044 -480645125 -140997946#0 -140997942 -60844538 140997936 140997927#1 140997927#2 -140997927#2"/>
    </vehicle>
    <vehicle id="45" depart="45.00">
        <route edges="-233629756#2 -233629756#1 -233629756#0 -741201990#5 -741201990#4 -741201990#3 -741201990#2 -741201990#1 -741201990#0 741201990#0 741201990#1 741201990#2 741201990#3 741201990#4 741201990#5 233629756#0 233629756#1 233629756#2 233629756#3 233629756#4 233629756#5 233629756#6 233629756#7 233629756#8 233629756#9 233629756#10 233629756#11 233629756#12 233629756#13 233629756#14 25115805#0 25115805#1"/>
    </vehicle>
    <vehicle id="46" depart="46.00">
        <route edges="47519280#2 47519280#3 -47519280#3 -47519280#2 -47519280#1 406017622#1 406017622#3 406017622#4 406017622#5 83487127#1 83487127#2 83487127#3 83487127#5 591266407#0 591266407#1 591266407#2 591266407#3 1026201965"/>
    </vehicle>
    <vehicle id="47" depart="47.00">
        <route edges="-183301162#0 -233629756#14 -233629756#13 -233629756#12 -233629756#11 -233629756#10 -233629756#9 -233629756#8 -233629756#7 -233629756#6 -233629756#5 -233629756#4 -233629756#3 -233629756#2 -233629756#1 -233629756#0 -741201990#5 -741201990#4 -741201990#3 -741201990#2 -741201990#1 -741201990#0 -339736822#3 -339736822#2 -339736822#1 -339736822#0 -1026161829#3 -1026161829#2 783248710#0 783248710#1 783248710#2 -1026143467#4 -1026143467#3 -1026143467#2 -1026143467#1 -1026143467#0 -1026201965 -591266407#3 -591266407#2 -591266407#1 -591266407#0 -83487127#5 -83487127#3 -83487127#2"/>
    </vehicle>
    <vehicle id="48" depart="48.00">
        <route edges="83487127#5 591266407#0 591266407#1 591266407#2 591266407#3 1026201965 1026143467#0 1026143467#1 1026143467#2 1026143467#3 1026143467#4 -783248710#2 -783248710#1 -783248710#0 1026161829#2 1026161829#3 339736822#0 339736822#1 339736822#2 339736822#3 741201990#0 741201990#1 741201990#2 741201990#3 741201990#4 741201990#5 233629756#0 233629756#1 233629756#2 233629756#3 233629756#4 233629756#5 233629756#6 233629756#7 233629756#8 233629756#9 233629756#10 233629756#11 233629756#12 233629756#13 233629756#14 183301162#0 183301162#1 183301162#2 183301162#3 183301162#4 183301162#5 142060980 20444004#6 20444004#7 20444004#0 20444004#1"/>
    </vehicle>
    <vehicle id="49" depart="49.00">
        <route edges="783248710#2 -1026143467#4 1026143467#4 -783248710#2 -783248710#1 -783248710#0 1026161829#2 1026161829#3 339736822#0 339736822#1 339736822#2 339736822#3 741201990#0 741201990#1 741201990#2 741201990#3 741201990#4 741201990#5 233629756#0 233629756#1 233629756#2 233629756#3 233629756#4 233629756#5 233629756#6 233629756#7 233629756#8 233629756#9 233629756#10 233629756#11 233629756#12 233629756#13 233629756#14 25115805#0 25115805#1 25115805#2 548881042 59709079#1 59709079#2"/>
    </vehicle>
</routes>
